!  ROMS/TOMS IO NetCDF variables.
!
!========================================================= Hernan G. Arango ===
!  Copyright (c) 2002-2020 The ROMS/TOMS Group                                !
!    Licensed under a MIT/X style license                                     !
!    See License_ROMS.txt                                                     !
!==============================================================================
!
! Note! This file contains some Tclm entries for historic reasons.
! These will no longer be read, but contain information on the
! climatology nudging used in CoSine. Many fields are using the same
! values since there is so little data.
! For instance, idTclm(iS1_N) points to NH4.
!
!==============================================================================
!
!  This file contains all ROMS/TOMS Input/Output variables information.  It   !
!  is used to manage NetCDF files.  The following information is needed for   !
!  any IO variable:                                                           !
!                                                                             !
!       Vinfo(1)      Field variable name.                                    !
!       Vinfo(2)      Long-name attribute.                                    !
!       Vinfo(3)      Units attribute.                                        !
!       Vinfo(4)      Field type attribute.                                   !
!       Vinfo(5)      Associated time variable name.                          !
!       Vinfo(6)      Index variable name used in information arrays.         !
!       Vinfo(7)      Staggered C-grid variable type:                         !
!                       'nulvar' => non-grided variable.                      !
!                       'p2dvar' => 2D PHI-variable.                          !
!                       'r2dvar' => 2D RHO-variable.                          !
!                       'u2dvar' => 2D U-variable.                            !
!                       'v2dvar' => 2D V-variable.                            !
!                       'p3dvar' => 3D PHI-variable.                          !
!                       'r3dvar' => 3D RHO-variable.                          !
!                       'u3dvar' => 3D U-variable.                            !
!                       'v3dvar' => 3D V-variable.                            !
!                       'w3dvar' => 3D W-variable.                            !
!                       'b3dvar' => 3D BED-sediment.                          !
!                       'l3dvar' => 3D spectral light variable.               !
!                       'l4dvar' => 4D spectral light variable.               !
!       scale         Scale to convert input data to model units.             !
!                                                                             !
!  Enclose Vinfo variables with single quotes so this file can be read with   !
!  a free format statement.  The  Vinfo(6) variable must be unique and case   !
!  sensitive.  It is checked in "mod_ncparm" to set the appropiate ID index   !
!  for the information arrays.                                                !
!                                                                             !
!  Notice that there is commented information for each variable  including    !
!  input/output type and internal model units in brackets.  There are some    !
!  variables that are special and require a particular units for Input and    !
!  and output.                                                                !
!                                                                             !
!==============================================================================
!
! The value in Vinfo(5) here is used to name the unlimited dimension in all
! output NetCDF files.  By default it is set to 'time'.  Alternatively, you
! can use 'ocean_time' as dimension name so both variable and dimension
! names are the same.  This facilitates processing in some NetCDF packages.
! Notice that we use the prefix 'ocean' in the variable name to differentiate
! between oceanic and atmospheric time clocks in fully coupled applications.
!
! Notice that salinity does not have physical units. A commented [PSU] can
! be found below to indicate that the practical salinity scale was used to
! determine conductivity. See,
!
! http://marine.rutgers.edu/po/users/forum/viewtopic.php?t=294
!
!------------------------------------------------------------------------------
!  Git Repository
!------------------------------------------------------------------------------
!

'$URL$'

!
!------------------------------------------------------------------------------
!  Model state variables.
!------------------------------------------------------------------------------
!

'ocean_time'                                       ! Input/Output
  'time since initialization'
  'second'                                         ! [s]
  'time, scalar, series'
  'ocean_time'
  'idtime'
  'nulvar'
  1.0d0

'bath'                                             ! Input/Output
  'bathymetry'
  'meter'                                          ! [m]
  'bathymetry, scalar, series'
  'ocean_time'
  'idbath'
  'r2dvar'
  1.0d0

'zeta'                                             ! Input/Output
  'free-surface'
  'meter'                                          ! [m]
  'free-surface, scalar, series'
  'ocean_time'
  'idFsur'
  'r2dvar'
  1.0d0

'ubar'                                             ! Input/Ouput
  'vertically integrated u-momentum component'
  'meter second-1'                                 ! [m/s]
  'ubar-velocity, scalar, series'
  'ocean_time'
  'idUbar'
  'u2dvar'
  1.0d0

'vbar'                                             ! Input/Output
  'vertically integrated v-momentum component'
  'meter second-1'                                 ! [m/s]
  'vbar-velocity, scalar, series'
  'ocean_time'
  'idVbar'
  'v2dvar'
  1.0d0

'ubar_eastward'                                    ! Ouput
  'eastward vertically integrated momentum component at RHO-points'
  'meter second-1'                                 ! [m/s]
  'ubar_eastward, scalar, series'
  'ocean_time'
  'idu2dE'
  'r2dvar'
  1.0d0

'vbar_northward'                                   ! Output
  'northward vertically integrated momentum component at RHO-points'
  'meter second-1'                                 ! [m/s]
  'vbar_northward, scalar, series'
  'ocean_time'
  'idv2dN'
  'r2dvar'
  1.0d0

'u'                                                ! Input/Output
  'u-momentum component'
  'meter second-1'                                 ! [m/s]
  'u-velocity, scalar, series'
  'ocean_time'
  'idUvel'
  'u3dvar'
  1.0d0

'v'                                                ! Input/Output
  'v-momentum component'
  'meter second-1'                                 ! [m/s]
  'v-velocity, scalar, series'
  'ocean_time'
  'idVvel'
  'v3dvar'
  1.0d0

'u_eastward'                                       ! Output
  'eastward momentum component at RHO-points'
  'meter second-1'                                 ! [m/s]
  'u_eastward, scalar, series'
  'ocean_time'
  'idu3dE'
  'r3dvar'
  1.0d0

'v_northward'                                      ! Output
  'northward momentum component at RHO-points'
  'meter second-1'                                 ! [m/s]
  'v_northward, scalar, series'
  'ocean_time'
  'idv3dN'
  'r3dvar'
  1.0d0

'u_sur'                                            ! Output
  'model surface u-momentum component'
  'meter second-1'                                 ! [m/s]
  'u_sur, scalar, series'
  'ocean_time'
  'idUsur'
  'u2dvar'
  1.0d0

'v_sur'                                            ! Output
  'model surface v-momentum component'
  'meter second-1'                                 ! [m/s]
  'v_sur, scalar, series'
  'ocean_time'
  'idVsur'
  'v2dvar'
  1.0d0

'u_sur_eastward'                                   ! Output
  'model surface eastward momentum component at RHO-points'
  'meter second-1'                                 ! [m/s]
  'u_sur_eastward, scalar, series'
  'ocean_time'
  'idUsuE'
  'r2dvar'
  1.0d0

'v_sur_northward'                                  ! Output
  'model surface northward momentum component at RHO-points'
  'meter second-1'                                 ! [m/s]
  'v_sur_northward, scalar, series'
  'ocean_time'
  'idVsuN'
  'r2dvar'
  1.0d0

'w'                                                ! Output
  'vertical momentum component'
  'meter second-1'                                 ! [m/s]
  'w-velocity, scalar, series'
  'ocean_time'
  'idWvel'
  'w3dvar'
  1.0d0

'omega'                                            ! Output
  'S-coordinate vertical momentum component'
  'meter3 second-1'                                ! [m3/s]
  'omega, scalar, series'
  'ocean_time'
  'idOvel'
  'w3dvar'
  1.0d0

'omega'                                            ! Output
  'S-coordinate vertical momentum component'
  'meter3 second-1'                                ! [m3/s]
  'omega, scalar, series'
  'ocean_time'
  'idOclm'
  'w3dvar'
  1.0d0

'rho'                                              ! Output
  'density anomaly'
  'kilogram meter-3'                               ! [kg/m3]
  'density, scalar, series'
  'ocean_time'
  'idDano'
  'r3dvar'
  1.0d0

'temp'                                             ! Input/Output
  'potential temperature'
  'Celsius'                                        ! [Celsius]
  'temperature, scalar, series'
  'ocean_time'
  'idTvar(itemp)'
  'r3dvar'
  1.0d0

'salt'                                             ! Input/Output
  'salinity'
  'nondimensional'                                 ! [PSU]
  'salinity, scalar, series'
  'ocean_time'
  'idTvar(isalt)'
  'r3dvar'
  1.0d0

'temp_sur'                                         ! Output
  'model surface potential temperature'
  'Celsius'                                        ! [Celsius]
  'temp_sur, scalar, series'
  'ocean_time'
  'idsurT(itemp)'
  'r2dvar'
  1.0d0

'salt_sur'                                         ! Output
  'model surface salinity'
  'nondimensional'                                 ! [PSU]
  'salinity, scalar, series'
  'ocean_time'
  'idsurT(isalt)'
  'r2dvar'
  1.0d0

'z_rho'                                            ! Output
  'depth of RHO-points'
  'meter'                                          ! [meter]
  'z_rho, scalar, series'
  'ocean_time'
  'idpthR'
  'r3dvar'
  1.0d0

'z_u'                                              ! Output
  'depth of U-points'
  'meter'                                          ! [meter]
  'z_u, scalar, series'
  'ocean_time'
  'idpthU'
  'u3dvar'
  1.0d0

'z_v'                                              ! Output
  'depth of V-points'
  'meter'                                          ! [meter]
  'z_v, scalar, series'
  'ocean_time'
  'idpthV'
  'v3dvar'
  1.0d0

'z_w'                                              ! Output
  'depth of W-points'
  'meter'                                          ! [meter]
  'z_w, scalar, series'
  'ocean_time'
  'idpthW'
  'w3dvar'
  1.0d0

'EBF'                                           ! Output
  'Ekman buoyancy flux at PSI-points'
  'Watt kg-1'                                   ! [m/s]
  'EBF, scalar, series'
  'ocean_time'
  'idEBF'
  'p2dvar'
  1.0d0

'strain'                                           ! Output
  'strain'
  'second-1'                                       ! [1/s]
  'strain, scalar, series'
  'ocean_time'
  'idStr'
  'p3dvar'
  1.0d0

'strain_sur'                                       ! Output
  'surface strain'
  'second-1'                                       ! [1/s]
  'strain_sur, scalar, series'
  'ocean_time'
  'idStr2'
  'p2dvar'
  1.0d0

'rvort_sur'                                        ! Output
  'surface relative vorticity'
  'second-1'                                       ! [1/s]
  'rvort_sur, scalar, series'
  'ocean_time'
  'idRVsu'
  'p2dvar'
  1.0d0

'pvort_sur'                                        ! Output
  'surface potential vorticity'
  'meter-1 second-1'                               ! [1/m/s]
  'pvort_sur, scalar, series'
  'ocean_time'
  'idPVsu'
  'p2dvar'
  1.0d0

'pvortk_sur'                                        ! Output
  'surface potential vorticity, k component'
  'meter-1 second-1'                               ! [1/m/s]
  'pvortk_sur, scalar, series'
  'ocean_time'
  'idPVKsu'
  'p2dvar'
  1.0d0

'pvortk'                                       ! Input/Output
  'potential vorticity, k component'
  'meter-1 second-1'                               ! [1/m/s]
  'pvorticity k component, scalar, series'
  'ocean_time'
  'id3dPVK'
  'p3dvar'
  1.0d0

'pvorti'                                       ! Input/Output
  'potential vorticity, i component'
  'meter-1 second-1'                               ! [1/m/s]
  'pvorticity, i component, scalar, series'
  'ocean_time'
  'id3dPVI'
  'p3dvar'
  1.0d0

'pvortj'                                       ! Input/Output
  'potential vorticity, j component'
  'meter-1 second-1'                               ! [1/m/s]
  'pvorticity, j component, scalar, series'
  'ocean_time'
  'id3dPVJ'
  'p3dvar'
  1.0d0

'pvorti_sur'                                        ! Output
  'surface potential vorticity, i component'
  'meter-1 second-1'                               ! [1/m/s]
  'pvorti_sur, scalar, series'
  'ocean_time'
  'idPVIsu'
  'p2dvar'
  1.0d0

'pvortj_sur'                                        ! Output
  'surface potential vorticity, j component'
  'meter-1 second-1'                               ! [1/m/s]
  'pvortj_sur, scalar, series'
  'ocean_time'
  'idPVJsu'
  'p2dvar'
  1.0d0

!
!------------------------------------------------------------------------------
!  Wet/dry masks.
!------------------------------------------------------------------------------
!

'wetdry_mask_psi'                                  ! Input/Output
  'wet/dry mask on PSI-points'
  'nondimensional'
  'wetdry_mask_psi, scalar, series'
  'ocean_time'
  'idPwet'
  'p2dvar'
  1.0d0

'wetdry_mask_rho'                                  ! Input/Output
  'wet/dry mask on RHO-points'
  'nondimensional'
  'wetdry_mask_rho, scalar, series'
  'ocean_time'
  'idRwet'
  'r2dvar'
  1.0d0

'wetdry_mask_u'                                    ! Input/Output
  'wet/dry mask on U-points'
  'nondimensional'
  'wetdry_mask_u, scalar, series'
  'ocean_time'
  'idUwet'
  'u2dvar'
  1.0d0

'wetdry_mask_v'                                    ! Input/Output
  'wet/dry mask on V-points'
  'nondimensional'
  'wetdry_mask_v, scalar, series'
  'ocean_time'
  'idVwet'
  'v2dvar'
  1.0d0

!
!------------------------------------------------------------------------------
!  Detided variables
!------------------------------------------------------------------------------
!

'CosW'                                             ! Input/Output
  'time-accumulated COS(omega(k)*t)'
  'radians'                                        ! [radians]
  'CosW, scalar'
  'tide_period'
  'idCosW'
  'nulvar'
  1.0d0

'SinW'                                             ! Input/Output
  'time-accumulated SIN(omega(k)*t)'
  'radians'                                        ! [radians]
  'SinW, scalar'
  'tide_period'
  'idSinW'
  'nulvar'
  1.0d0

'CosWCosW'                                         ! Input/Output
  'time-accumulated COS(omega(k)*t)*COS(omega(l)*t) matrix'
  'radians'                                        ! [radians]
  'CosWCosW, scalar'
  'tide_period'
  'idCos2'
  'nulvar'
  1.0d0

'SinWSinW'                                         ! Input/Output
  'time-accumulated SIN(omega(k)*t)*SIN(omega(l)*t) matrix'
  'radians'                                        ! [radians]
  'SinWSinW, scalar'
  'tide_period'
  'idSin2'
  'nulvar'
  1.0d0

'SinWCosW'                                         ! Input/Output
  'time-accumulated SIN(omega(k)*t)*COS(omega(l)*t) matrix'
  'radians'                                        ! [radians]
  'SinWCosW, scalar'
  'tide_period'
  'idSWCW'
  'nulvar'
  1.0d0

'zeta_tide'                                        ! Input/Output
  'time-accumulated free-surface tide harmonics'
  'meter'                                          ! [m]
  'zeta_tide, scalar'
  'ocean_time'
  'idFsuH'
  'r2dvar'
  1.0d0

'zeta_detided'                                     ! Output
  'detided free-surface'
  'meter'                                          ! [m]
  'zeta_detided, scalar, series'
  'ocean_time'
  'idFsuD'
  'r2dvar'
  1.0d0

'ubar_tide'                                        ! Input/Ouput
  'time-accumulated 2D u-momentum tide harmonics'
  'meter second-1'                                 ! [m/s]
  'ubar_tide, scalar'
  'ocean_time'
  'idu2dH'
  'u2dvar'
  1.0d0

'ubar_detided'                                     ! Ouput
  'detided 2D u-momentum'
  'meter second-1'                                 ! [m/s]
  'ubar_detided, scalar, series'
  'ocean_time'
  'idu2dD'
  'u2dvar'
  1.0d0

'vbar_tide'                                        ! Input/Output
  'time-accumulated 2D v-momentum tide harmonics'
  'meter second-1'                                 ! [m/s]
  'vbar_tide, scalar'
  'ocean_time'
  'idv2dH'
  'v2dvar'
  1.0d0

'vbar_detided'                                     ! Output
  'detided 2D v-momentum'
  'meter second-1'                                 ! [m/s]
  'vbar_detided, scalar, series'
  'ocean_time'
  'idv2dD'
  'v2dvar'
  1.0d0

'u_tide'                                           ! Input/Output
  'time-accumulated 3D u-momentum tide harmonics'
  'meter second-1'                                 ! [m/s]
  'u_tide, scalar'
  'ocean_time'
  'idu3dH'
  'u3dvar'
  1.0d0

'u_detided'                                        ! Output
  'detided 3D u-momentum'
  'meter second-1'                                 ! [m/s]
  'u_detided, scalar, series'
  'ocean_time'
  'idu3dD'
  'u3dvar'
  1.0d0

'v_tide'                                           ! Input/Output
  'time-accumulated 3D v-momentum tide harmonics'
  'meter second-1'                                 ! [m/s]
  'v_tide, scalar'
  'ocean_time'
  'idv3dH'
  'v3dvar'
  1.0d0

'v_detided'                                        ! Output
  'detided 3D v-momentum'
  'meter second-1'                                 ! [m/s]
  'v_detided, scalar, series'
  'ocean_time'
  'idv3dD'
  'v3dvar'
  1.0d0

'temp_tide'                                        ! Input/Output
  'time-accumulated potential temperature tide harmonics'
  'Celsius'                                        ! [Celsius]
  'temp_tide, scalar'
  'ocean_time'
  'idTrcH(itemp)'
  'r3dvar'
  1.0d0

'temp_detided'                                     ! Output
  'detided potential temperature'
  'Celsius'                                        ! [Celsius]
  'v_detided, scalar, series'
  'ocean_time'
  'idTrcD(itemp)'
  'r3dvar'
  1.0d0

'temp_tide'                                        ! Input/Output
  'time-accumulated potential temperature tide harmonics'
  'Celsius'                                        ! [Celsius]
  'temp_tide, scalar'
  'ocean_time'
  'idTrcH(itemp)'
  'r3dvar'
  1.0d0

'temp_detided'                                     ! Output
  'detided potential temperature'
  'Celsius'                                        ! [Celsius]
  'temp_detided, scalar, series'
  'ocean_time'
  'idTrcD(itemp)'
  'r3dvar'
  1.0d0

'salt_tide'                                        ! Input/Output
  'time-accumulated salinity tide harmonics'
  'nondimensional'                                 ! [PSU]
  'salt_tide, scalar'
  'ocean_time'
  'idTrcH(isalt)'
  'r3dvar'
  1.0d0

'salt_detided'                                     ! Output
  'detided potential temperature'
  'nondimensional'                                 ! [PSU]
  'salt_detided, scalar, series'
  'ocean_time'
  'idTrcD(isalt)'
  'r3dvar'
  1.0d0

!
!------------------------------------------------------------------------------
!  Momentum stress variables.
!------------------------------------------------------------------------------
!

'sustr'                                            ! Input/Output
  'surface u-momentum stress'
  'newton meter-2'                                 ! Input:  [N/m2]
  'surface u-momentum stress, scalar, series'      ! [m2/s2]
  'sms_time'                                       ! Output: [N/m2]
  'idUsms'
  'u2dvar'
  1.0d0

'svstr'                                            ! Input/Output
  'surface v-momentum stress'
  'newton meter-2'                                 ! Input:  [N/m2]
  'surface v-momentum stress, scalar, series'      ! [m2/s2]
  'sms_time'                                       ! Output: [N/m2]
  'idVsms'
  'v2dvar'
  1.0d0

'bustr'                                            ! Output
  'bottom u-momentum stress'
  'newton meter-2'                                 ! [m2/s2]
  'bottom u-momentum stress, scalar, series'       ! Output: [N/m2]
  'bms_time'
  'idUbms'
  'u2dvar'
  1.0d0

'bvstr'                                            ! Output
  'bottom v-momentum stress'
  'newton meter-2'                                 ! [m2/s2]
  'bottom v-momentum stress, scalar, series'       ! Output: [N/m2]
  'bms_time'
  'idVbms'
  'v2dvar'
  1.0d0

'bustrc'                                           ! Output
  'current-induced, bottom u-momentum stress'
  'newton meter-2'                                 ! [m2/s2]
  'bottom u-momentum stress, scalar, series'       ! Output: [N/m2]
  'bms_time'
  'idUbrs'
  'r2dvar'
  1.0d0

'bvstrc'                                           ! Ouput
  'current-induced, bottom v-momentum stress'
  'newton meter-2'                                 ! [m2/s2]
  'bottom v-momentum stress, scalar, series'       ! Output: [N/m2]
  'bms_time'
  'idVbrs'
  'r2dvar'
  1.0d0

'bustrw'                                           ! Output
  'wind-induced, bottom u-momentum stress'
  'newton meter-2'                                 ! [m2/s2]
  'bottom u-wave stress, scalar, series'           ! Output: [N/m2]
  'ocean_time'
  'idUbws'
  'r2dvar'
  1.0d0

'bvstrw'                                           ! Output
  'wind-induced, bottom v-momentum stress'
  'newton meter-2'                                 ! [m2/s2]
  'bottom v-wave stress, scalar, series'           ! Output: [N/m2]
  'ocean_time'
  'idVbws'
  'r2dvar'
  1.0d0

'bustrcwmax'                                       ! Output
  'maximum wind and current, bottom u-wave stress'
  'newton meter-2'                                 ! [m2/s2]
  'bustrcwmax, scalar, series'                     ! Output: [N/m2]
  'ocean_time'
  'idUbcs'
  'u2dvar'
  1.0d0

'bvstrcwmax'                                       ! Output
  'maximum wind and current, bottom v-wave stress'
  'newton meter-2'                                 ! [m2/s2]
  'bustrcwmax, scalar, series'                     ! Output: [N/m2]
  'ocean_time'
  'idVbcs'
  'v2dvar'
  1.0d0

'Ubot'                                             ! Output
  'wind-induced, bed wave orbital u-velocity'
  'meter second-1'                                 ! [m/s]
  'bed wave u-velocity, scalar, series'
  'ocean_time'
  'idUbot'
  'r2dvar'
  1.0d0

'Vbot'                                             ! Output
  'wind-induced, bed wave orbital v-velocity'
  'meter second-1'                                 ! [m/s]
  'bed wave v-velocity, scalar, series'
  'ocean_time'
  'idVbot'
  'r2dvar'
  1.0d0

'Ur'                                               ! Output
  'bottom u-momentum above bed'
  'meter second-1'                                 ! [m/s]
  'bottom u-velocity, scalar, series'
  'ocean_time'
  'idUbur'
  'r2dvar'
  1.0d0

'Vr'                                               ! Output
  'bottom v-momentum above bed'
  'meter second-1'                                 ! [m/s]
  'bottom v-velocity, scalar, series'
  'ocean_time'
  'idVbvr'
  'r2dvar'
  1.0d0
!
!------------------------------------------------------------------------------
!  Tracer flux variables.
!------------------------------------------------------------------------------
!

'shflux'                                           ! Input/Output
  'surface net heat flux'
  'watt meter-2'                                   ! Input:  [Watt/m2]
  'surface heat flux, scalar, series'              ! [Celsius m/s]
  'shf_time'                                       ! Output: [Watt/m2]
  'idTsur(itemp)'
  'r2dvar'
  1.0d0

'dQdSST'                                           ! Input
  'surface net heat flux sensitivity to SST'
  'watt meter-2 Celsius-1'                         ! Input:  [Watt/m2]
  'dQdSST, scalar, series'                         ! [Celsius m/s]
  'sst_time'
  'iddQdT'
  'r2dvar'
  1.0d0

'ssflux'                                           ! Output
  'surface net salt flux, (E-P)*SALT'
  'meter second-1'                                 ! [PSU m/s]
  'surface net salt flux, scalar, series'
  'ssf_time'
  'idTsur(isalt)'
  'r2dvar'
  1.0d0

'swflux'                                           ! Input
  'surface net freswater flux, (E-P)'
  'centimeter day-1'                               ! Input:  [m/s]
  'surface net salt flux, scalar, series'          ! [PSU m/s]
  'swf_time'
  'idsfwf'
  'r2dvar'
  1.157407d-7                                      ! 0.01/86400

'EminusP'                                          ! Input/Output
  'bulk_flux surface net freswater flux, (E-P)'
  'meter second-1'                                 ! computed by NLM ROMS
  'EminusP, scalar, series'                        ! bulk_flux.F and
  'ocean_time'                                     ! needed in adjoint-based
  'idEmPf'                                         ! applications
  'r2dvar'
  1.0d0

'SSSf'                                             ! Input/Output
  'surface net freswater flux from salinity nudging'
  'meter second-1'                                 ! computed by NLM ROMS
  'SSSf, scalar, series'                           ! bulk_flux.F and
  'ocean_time'                                     ! needed in adjoint-based
  'idSSSf'                                         ! applications
  'r2dvar'
  1.0d0

'fastice'                                          ! Input/Output
  'landfast ice extent'
  '1'                                              !
  'FastIce, scalar, series'                        !
  'ocean_time'                                     !
  'idFastIce'                                      !
  'r2dvar'
  1.0d0

'bhflux'                                           ! Input
  'bottom net heat flux'
  'watt meter-2'                                   ! Input:  [Watt/m2]
  'bottom heat flux, scalar, series'               ! [Celsius m/s]
  'bhf_time'
  'idTbot(itemp)'
  'r2dvar'
  1.0d0

'bwflux'                                           ! Input
  'bottom net freshwater flux'
  'centimeter day-1'                               ! Input:  [m/s]
  'bottom water flux, scalar, series'              ! [PSU m/s]
  'bwf_time'
  'idTbot(isalt)'
  'r2dvar'
  1.157407d-7                                      ! 0.01/86400


'Runoff'
  'Fresh water runoff from land'
  'kg/s/m^2'
  'runoff, scalar, series'
  'runoff_time'
  'idRunoff'
  'r2dvar'
  1.0d0

'wg2d'
  'surface wind gustiness squared from NCEP fluxes'
  'meter2 second-2'
  'gustiness squared, scalar, series'
  'ocean_time'
  'idWg2d'
  'r2dvar'
  1.0d0

'cdd'
  'momentum transfer coefficient from NCEP fluxes'
  'nondimensional'
  'transfer coefficient, scalar, series'
  'ocean_time'
  'idCdd'
  'r2dvar'
  1.0d0

'chd'
  'sensible heat transfer coefficient from NCEP'
  'nondimensional'
  'transfer coefficient, scalar, series'
  'ocean_time'
  'idChd'
  'r2dvar'
  1.0d0

'ced'
  'latent heat transfer coefficient from NCEP'
  'nondimensional'
  'transfer coefficient, scalar, series'
  'ocean_time'
  'idCed'
  'r2dvar'
  1.0d0

'wg2m'
  'surface wind gustiness squared from model'
  'meter2 second-2'
  'gustiness squared, scalar, series'
  'ocean_time'
  'idWg2m'
  'r2dvar'
  1.0d0

'cdm'
  'momentum transfer coefficient from model'
  'nondimensional'
  'transfer coefficient, scalar, series'
  'ocean_time'
  'idCdm'
  'r2dvar'
  1.0d0

'chm'
  'sensible heat transfer coefficient from model'
  'nondimensional'
  'transfer coefficient, scalar, series'
  'ocean_time'
  'idChm'
  'r2dvar'
  1.0d0

'cem'
  'latent heat transfer coefficient from model'
  'nondimensional'
  'transfer coefficient, scalar, series'
  'ocean_time'
  'idCem'
  'r2dvar'
  1.0d0

'rhoa'
  'near-surface air density from NCEP fluxes'
  'kg meter-3'
  'air density, scalar, series'
  'ocean_time'
  'idRhoa'
  'r2dvar'
  1.0d0

!
!------------------------------------------------------------------------------
!  Mixing variables.
!------------------------------------------------------------------------------
!

'tke'                                              ! Output
  'turbulent kinetic energy'
  'meter2 second-2'                                ! [m2/s2]
  'tke, scalar, series'
  'ocean_time'
  'idMtke'
  'w3dvar'
  1.0d0

'gls'                                              ! Output
  'turbulent generic length scale'
  'meter3 second-2'                                ! [m3/s2]
  'gls, scalar, series'
  'ocean_time'
  'idMtls'
  'w3dvar'
  1.0d0

'Lscale'                                           ! Output
  'vertical mixing turbulent length scale'
  'meter'                                          ! [m]
  'Lscale, scalar, series'
  'ocean_time'
  'idVmLS'
  'w3dvar'
  1.0d0

'AKv'                                              ! Input/Output
  'vertical viscosity coefficient'
  'meter2 second-1'                                ! [m2/s]
  'AKv, scalar, series'
  'ocean_time'
  'idVvis'
  'w3dvar'
  1.0d0

'AKt'                                              ! Input/Output
  'temperature vertical diffusion coefficient'
  'meter2 second-1'                                ! [m2/s]
  'AKt, scalar, series'
  'ocean_time'
  'idTdif'
  'w3dvar'
  1.0d0

'AKs'                                              ! Input/Output
  'salinity vertical diffusion coefficient'
  'meter2 second-1'                                ! [m2/s]
  'AKs, scalar, series'
  'ocean_time'
  'idSdif'
  'w3dvar'
  1.0d0

'AKk'                                              ! Input/Output
  'Turbulent kinetic energy vertical diffusion coefficient'
  'meter2 second-1'                                ! [m2/s]
  'AKk, scalar, series'
  'ocean_time'
  'idVmKK'
  'w3dvar'
  1.0d0

'AKp'                                              ! Input/Output
  'Turbulent length scale vertical diffusion coefficient'
  'meter2 second-1'                                ! [m2/s]
  'AKp, scalar, series'
  'ocean_time'
  'idVmKP'
  'w3dvar'
  1.0d0

'ghat_temp'                                        ! Input/Output
  'potential temperature nonlocal transport'
  'nondimensional'                                 ! [nondimensional]
  'ghat_temp, scalar, series'
  'ocean_time'
  'idGhat(itemp)'
  'w3dvar'
  1.0d0

'ghat_salt'                                        ! Input/Output
  'salinity nonlocal transport'
  'nondimensional'                                 ! {nondimensional]
  'ghat_salt, scalar, series'
  'ocean_time'
  'idGhat(isalt)'
  'w3dvar'
  1.0d0

!
!------------------------------------------------------------------------------
!  Boundary variables.
!------------------------------------------------------------------------------
!

'zeta_west'                                        ! Input
  'free-surface western boundary condition'
  'meter'                                          ! [m]
  'zeta_west, scalar, series'
  'ocean_time'
  'idZbry(iwest)'
  'nulvar'
  1.0d0

'zeta_east'                                        ! Input
  'free-surface eastern boundary condition'
  'meter'                                          ! [m]
  'zeta_east, scalar, series'
  'ocean_time'
  'idZbry(ieast)'
  'nulvar'
  1.0d0

'zeta_south'                                       ! Input
  'free-surface southern boundary condition'
  'meter'                                          ! [m]
  'zeta_south, scalar, series'
  'ocean_time'
  'idZbry(isouth)'
  'nulvar'
  1.0d0

'zeta_north'                                       ! Input
  'free-surface northern boundary condition'
  'meter'                                          ! [m]
  'zeta_north, scalar, series'
  'ocean_time'
  'idZbry(inorth)'
  'nulvar'
  1.0d0

'ubar_west'                                        ! Input
  '2D u-momentum western boundary condition'
  'meter second-1'                                 ! [m/s]
  'ubar_west, scalar, series'
  'ocean_time'
  'idU2bc(iwest)'
  'nulvar'
  1.0d0

'ubar_east'                                        ! Input
  '2D u-momentum eastern boundary condition'
  'meter second-1'                                 ! [m/s]
  'ubar_east, scalar, series'
  'ocean_time'
  'idU2bc(ieast)'
  'nulvar'
  1.0d0

'ubar_south'                                       ! Input
  '2D u-momentum southern boundary condition'
  'meter second-1'                                 ! [m/s]
  'ubar_south, scalar, series'
  'ocean_time'
  'idU2bc(isouth)'
  'nulvar'
  1.0d0

'ubar_north'                                       ! Input
  '2D u-momentum northern boundary condition'
  'meter second-1'                                 ! [m/s]
  'ubar_north, scalar, series'
  'ocean_time'
  'idU2bc(inorth)'
  'nulvar'
  1.0d0

'vbar_west'                                        ! Input
  '2D v-momentum western boundary condition'
  'meter second-1'                                 ! [m/s]
  'vbar_west, scalar, series'
  'ocean_time'
  'idV2bc(iwest)'
  'nulvar'
  1.0d0

'vbar_east'                                        ! Input
  '2D v-momentum eastern boundary condition'
  'meter second-1'                                 ! [m/s]
  'vbar_east, scalar, series'
  'ocean_time'
  'idV2bc(ieast)'
  'nulvar'
  1.0d0

'vbar_south'                                       ! Input
  '2D v-momentum southern boundary condition'
  'meter second-1'                                 ! [m/s]
  'vbar_south, scalar, series'
  'ocean_time'
  'idV2bc(isouth)'
  'nulvar'
  1.0d0

'vbar_north'                                       ! Input
  '2D v-momentum northern boundary condition'
  'meter second-1'                                 ! [m/s]
  'vbar_north, scalar, series'
  'ocean_time'
  'idV2bc(inorth)'
  'nulvar'
  1.0d0

'u_west'                                           ! Input
  '3D u-momentum western boundary condition'
  'meter second-1'                                 ! [m/s]
  'u_west, scalar, series'
  'ocean_time'
  'idU3bc(iwest)'
  'nulvar'
  1.0d0

'u_east'                                           ! Input
  '3D u-momentum eastern boundary condition'
  'meter second-1'                                 ! [m/s]
  'u_east, scalar, series'
  'ocean_time'
  'idU3bc(ieast)'
  'nulvar'
  1.0d0

'u_south'                                          ! Input
  '3D u-momentum southern boundary condition'
  'meter second-1'                                 ! [m/s]
  'u_south, scalar, series'
  'ocean_time'
  'idU3bc(isouth)'
  'nulvar'
  1.0d0

'u_north'                                          ! Input
  '3D u-momentum northern boundary condition'
  'meter second-1'                                 ! [m/s]
  'u_north, scalar, series'
  'ocean_time'
  'idU3bc(inorth)'
  'nulvar'
  1.0d0

'v_west'                                           ! Input
  '3D v-momentum western boundary condition'
  'meter second-1'                                 ! [m/s]
  'v_west, scalar, series'
  'ocean_time'
  'idV3bc(iwest)'
  'nulvar'
  1.0d0

'v_east'                                           ! Input
  '3D v-momentum eastern boundary condition'
  'meter second-1'                                 ! [m/s]
  'v_east, scalar, series'
  'ocean_time'
  'idV3bc(ieast)'
  'nulvar'
  1.0d0

'v_south'                                          ! Input
  '3D v-momentum southern boundary condition'
  'meter second-1'                                 ! [m/s]
  'v_south, scalar, series'
  'ocean_time'
  'idV3bc(isouth)'
  'nulvar'
  1.0d0

'v_north'                                          ! Input
  '3D v-momentum northern boundary condition'
  'meter second-1'                                 ! [m/s]
  'v_north, scalar, series'
  'ocean_time'
  'idV3bc(inorth)'
  'nulvar'
  1.0d0

'temp_west'                                        ! Input
  'temperature western boundary condition'
  'Celsius'                                        ! [Celsius]
  'temp_west, scalar, series'
  'ocean_time'
  'idTbry(iwest,itemp)'
  'nulvar'
  1.0d0

'temp_east'                                        ! Input
  'temperature eastern boundary condition'
  'Celsius'                                        ! [Celsius]
  'temp_east, scalar, series'
  'ocean_time'
  'idTbry(ieast,itemp)'
  'nulvar'
  1.0d0

'temp_south'                                       ! Input
  'temperature southern boundary condition'
  'Celsius'                                        ! [Celsius]
  'temp_south, scalar, series'
  'ocean_time'
  'idTbry(isouth,itemp)'
  'nulvar'
  1.0d0

'temp_north'                                       ! Input
  'temperature northern boundary condition'
  'Celsius'                                        ! [Celsius]
  'temp_north, scalar, series'
  'ocean_time'
  'idTbry(inorth,itemp)'
  'nulvar'
  1.0d0

'salt_west'                                        ! Input
  'salinity western boundary condition'
  'nondimensional'                                 ! [PSU]
  'salt_west, scalar, series'
  'ocean_time'
  'idTbry(iwest,isalt)'
  'nulvar'
  1.0d0

'salt_east'                                        ! Input
  'salinity eastern boundary condition'
  'nondimensional'                                 ! [PSU]
  'salt_east, scalar, series'
  'ocean_time'
  'idTbry(ieast,isalt)'
  'nulvar'
  1.0d0

'salt_south'                                       ! Input
  'salinity southern boundary condition'
  'nondimensional'                                 ! [PSU]
  'salt_south, scalar, series'
  'ocean_time'
  'idTbry(isouth,isalt)'
  'nulvar'
  1.0d0

'salt_north'                                       ! Input
  'salinity northern boundary condition'
  'nondimensional'                                 ! [PSU]
  'salt_north, scalar, series'
  'ocean_time'
  'idTbry(inorth,isalt)'
  'nulvar'
  1.0d0

!
!------------------------------------------------------------------------------
!  Atmospheric forcing variables.
!------------------------------------------------------------------------------
!

'Pair'                                             ! Input
  'surface air pressure'
  'Pascal'                                       ! [ROMS wants millibar]
  'Pair, scalar, series'
  'pair_time'
  'idPair'
  'r2dvar'
  0.01d0

'Tair'                                             ! Input
  'surface air temperature'
  'Celsius'                                        ! [Kelvin]
  'Tair, scalar, series'
  'tair_time'
  'idTair'
  'r2dvar'
  1.0d0

'Qair'                                             ! Input
  'surface air relative humidity'
  'kg/kg'                                          ! [kg/kg]
  'Qair, scalar, series'
  'qair_time'
  'idQair'
  'r2dvar'
  1.00d0                                           ! was percent

'cloud'                                            ! Input
  'cloud fraction'
  'nondimensional'                                 ! [nondimensional]
  'cloud, scalar, series'
  'cloud_time'
  'idCfra'
  'r2dvar'
  1.0d0

'swrad'                                            ! Input/Output
  'solar shortwave radiation flux'
  'watt meter-2'                                   ! Input:  [Watt/m2]
  'shortwave radiation, scalar, series'            ! [Celsius m/s]
  'srf_time'                                       ! Output: [Watt/m2]
  'idSrad'
  'r2dvar'
  1.0d0

'albedo'                                           ! Input/Output
  'albedo'
  'fraction'                                       ! Input: [fraction]
  'albedo, scalar, series'                         ! [Celsius m/s]
  'albedo_time'                                    ! Output: [fraction]
  'idAlbe'
  'r2dvar'
  1.0d0

'lwrad_down'                                       ! Input
  'downwelling longwave radiation flux'
  'watt meter-2'                                   ! Input:  [Watt/m2]
  'downwelling longwave radiation, scalar, series' ! [Celsius m/s]
  'lrf_time'
  'idLdwn'
  'r2dvar'
  1.0d0

'lwrad'                                            ! Input/Output
  'net longwave radiation flux'
  'watt meter-2'                                   ! Input:  [Watt/m2]
  'longwave radiation, scalar, series'             ! [Celsius m/s]
  'lrf_time'                                       ! Output: [Watt/m2]
  'idLrad'
  'r2dvar'
  1.0d0

'latent'                                           ! Input/Output
  'net latent heat flux'
  'watt meter-2'                                   ! Input:  [Watt/m2]
  'latent heat flux, scalar, series'               ! [Celsius m/s]
  'lhf_time'                                       ! Output: [Watt/m2]
  'idLhea'
  'r2dvar'
  1.0d0

'sensible'                                         ! Input/Output
  'net sensible heat flux'
  'watt meter-2'                                   ! Input:  [Watt/m2]
  'sensible heat flux, scalar, series'             ! [Celsius m/s]
  'shf_time'                                       ! Output: [Watt/m2]
  'idShea'
  'r2dvar'
  1.0d0

'rain'                                             ! Input
  'rain fall rate'
  'kilogram meter-2 second-1'                      ! [kg m2/s]
  'rain, scalar, series'
  'rain_time'
  'idrain'
  'r2dvar'
  1.0d0                                            ! 1/rhow (0.001 m3/kg) if m/s

'snow'                                             ! Input
  'snow fall rate'
  'kilogram meter-2 second-1'                      ! [kg m2/s]
  'snow, scalar, series'
  'snow_time'
  'idsnow'
  'r2dvar'
  1.0d0                                            ! 1/rhow (0.001 m3/kg) if m/s

'evaporation'                                      ! Input
  'evaporation rate'
  'kilogram meter-2 second-1'                      ! [kg m2/s]
  'evaporation, scalar, series'
  'evap_time'
  'idevap'
  'r2dvar'
  1.0d0                                            ! 1/rhow (0.001 m3/kg) if m/s

'Uwind'                                            ! Input
  'surface u-wind component'
  'meter second-1'                                 ! [m/s]
  'u-wind, scalar, series'
  'wind_time'
  'idUair'
  'r2dvar'
  1.0d0

'Vwind'                                            ! Input
  'surface v-wind component'
  'meter second-1'                                 ! [m/s]
  'v-wind, scalar, series'
  'wind_time'
  'idVair'
  'r2dvar'
  1.0d0

'Uwind_eastward'                                   ! Output
  'eastward surface wind component at RHO-points'
  'meter second-1'                                 ! [m/s]
  'Uwind_eastward, scalar, series'
  'ocean_time'
  'idUairE'
  'r2dvar'
  1.0d0

'Vwind_northward'                                  ! Output
  'northward surface wind component at RHO-points'
  'meter second-1'                                 ! [m/s]
  'Vwind_northward, scalar, series'
  'ocean_time'
  'idVairN'
  'r2dvar'
  1.0d0

'Dwave'                                            ! Input
  'wind-induced wave direction'
  'degrees'                                        ! [radians]
  'Dwave, scalar, series'
  'wave_time'
  'idWdir'
  'r2dvar'
  0.017453292519943295                             ! pi/180

'Hwave'                                            ! Input
  'wind-induced significant wave height'
  'meter'                                          ! [m]
  'Hwave, scalar, series'
  'wave_time'
  'idWamp'
  'r2dvar'
  1.0d0

'Lwave'                                            ! Input
  'wind-induced mean wavelength'
  'meter'                                          ! [m]
  'Lwave, scalar, series'
  'wave_time'
  'idWlen'
  'r2dvar'
  1.0

'Pwave_top'                                        ! Input
  'wind-induced peak surface wave Period'
  'second'                                         ! [s]
  'Pwave_top, scalar, series'
  'wave_time'
  'idWptp'
  'r2dvar'
  1.0d0

'Pwave_bot'                                        ! Input
  'wind-induced bottom wave Period'
  'second'                                         ! [s]
  'Pwave_bot, scalar, series'
  'wave_time'
  'idWpbt'
  'r2dvar'
  1.0d0

'Ub_swan'                                          ! Input
  'wind-induced bottom orbital velocity'
  'meter second-1'                                 ! [m/s]
  'Ub_swan, scalar, series'
  'wave_time'
  'idWorb'
  'r2dvar'
  1.0d0

'Wave_dissip'                                      ! Input
  'wave dissipation'
  'Watts meter-2'                                  ! [W/m2]
  'Wave_dissip, scalar, series'
  'wave_time'
  'idWdis'
  'r2dvar'
  0.00097561                                       !1/rho0

'Wave_break'                                       ! Input
  'percent wave breaking'
  'nondimensionsal'                                ! []
  'Wave_break, scalar, series'
  'wave_time'
  'idWbrk'
  'r2dvar'
  1.0d0

'Sxx_bar'                                          ! Output
  'vertically-integrated radiation stress, Sxx-component'
  'meter2 second2'                                 ! [s]
  'Sxx, scalar, series'
  'ocean_time'
  'idW2xx'
  'r2dvar'
  1.0d0

'Sxy_bar'                                          ! Output
  'vertically-integrated radiation stress, Sxy-component'
  'meter2 second2'                                 ! [s]
  'Sxy_bar, scalar, series'
  'ocean_time'
  'idW2xy'
  'r2dvar'
  1.0d0

'Syy_bar'                                          ! Output
  'vertically-integrated radiation stress, Syy-component'
  'meter2 second2'                                 ! [s]
  'Syy_bar, scalar, series'
  'ocean_time'
  'idW2yy'
  'r2dvar'
  1.0d0

'Sxx'                                              ! Output
  '3D horizontal radiation stress, Sxx-component'
  'meter2 second2'                                 ! [s]
  'Sxx, scalar, series'
  'ocean_time'
  'idW3xx'
  'r3dvar'
  1.0d0

'Sxy'                                              ! Output
  '3D horizontal radiation stress, Sxy-component'
  'meter2 second2'                                 ! [s]
  'Sxy, scalar, series'
  'ocean_time'
  'idW3xy'
  'r3dvar'
  1.0d0

'Syy'                                              ! Output
  '3D radiation stress, Syy-component'
  'meter2 second2'                                 ! [s]
  'Syy, scalar, series'
  'ocean_time'
  'idW3yy'
  'r3dvar'
  1.0d0

'Szx'                                              ! Output
  '3D vertical radiation stress, Szx-component'
  'meter2 second2'                                 ! [s]
  'Szx, scalar, series'
  'ocean_time'
  'idW3zx'
  'r3dvar'
  1.0d0

'Szy'                                              ! Output
  '3D vertical radiation stress, Szy-component'
  'meter2 second2'                                 ! [s]
  'Szy, scalar, series'
  'ocean_time'
  'idW3zy'
  'r3dvar'
  1.0d0

'ubar_Rstress'                                     ! Output
  'vertically-integrated u-radiation stress'
  'newton meter-2'                                 ! [N/m2]
  'ubar_Rstress, scalar, series'
  'ocean_time'
  'idU2rs'
  'u2dvar'
  1.0d0

'ubar_stokes'                                      ! Output
  'vertically-integrated u-Stokes drift velocity'
  'meter second-1'                                 ! [m/s]
  'ubar_stokes-velocity, scalar, series'
  'ocean_time'
  'idU2Sd'
  'u2dvar'
  1.0d0

'vbar_Rstress'                                      ! Output
  'vertically-integrated v-radiation stress'
  'newton meter-2'                                  ! [N/m2]
  'ubar_Rstress, scalar, series'
  'ocean_time'
  'idV2rs'
  'v2dvar'
  1.0d0

'vbar_stokes'                                      ! Output
  'vertically-integrated v-Stokes drift velocity'
  'meter second-1'                                 ! [m/s]
  'vbar_stokes, scalar, series'
  'ocean_time'
  'idV2Sd'
  'v2dvar'
  1.0d0

'u_Rstress'                                         ! Output
  'u-radiation stress'
  'newton meter-2'                                  ! [N/m2]
  'u_Rstress, scalar, series'
  'ocean_time'
  'idU3rs'
  'u3dvar'
  1.0d0

'u_stokes'                                         ! Output
  'u-Stokes drift velocity'
  'meter second-1'                                 ! [m/s]
  'u_stokes, scalar, series'
  'wave_time'
  'idU3Sd'
  'u3dvar'
  1.0d0

'v_Rstress'                                         ! Output
  'v-radiation stress'
  'newton meter-2'                                  ! [N/m2]
  'v_Rstress, scalar, series'
  'ocean_time'
  'idV3rs'
  'v3dvar'
  1.0d0

'v_stokes'                                         ! Output
  'v-Stokes drift velocity'
  'meter second-1'                                 ! [m/s]
  'v_stokes, scalar, series'
  'ocean_time'
  'idV3Sd'
  'v3dvar'
  1.0d0

!
!------------------------------------------------------------------------------
!  Tidal forcing variables.
!------------------------------------------------------------------------------
!

'tide_period'                                      ! Input
  'tidal period'
  'hours'                                          ! [s]
  'tide_period, scalar, series'
  'tide_period'
  'idTper'
  'nulvar'
  3600.0d0                                         ! 60*60

'tide_Eamp'                                        ! Input
  'tidal elevation amplitude'
  'meter'                                          ! [m]
  'SSH_Tamp, scalar, series'
  'tide_period'
  'idTzam'
  'r2dvar'
  1.0d0

'tide_Ephase'                                      ! Input
  'tidal elevation phase angle'
  'degrees'                                        ! [radians]
  'SSH_Tphase, scalar, series'
  'tide_period'
  'idTzph'
  'r2dvar'
  0.017453292519943295                             ! pi/180

'tide_Cphase'                                      ! Input
  'tidal current phase angle'
  'degrees'                                        ! [radians]
  'tide_Cphase, scalar, series'
  'tide_period'
  'idTvph'
  'r2dvar'
  0.017453292519943295                             ! pi/180

'tide_Cangle'                                      ! Input
  'tidal current inclination angle'
  'degrees'                                        ! [radians]
  'tide_Cangle, scalar, series'
  'tide_period'
  'idTvan'
  'r2dvar'
  0.017453292519943295                             ! pi/180

'tide_Cmax'                                        ! Input
  'maximum tidal current, ellipse major axis'
  'meter second-1'                                 ! [m/s]
  'tide_Cmax, scalar, series'
  'tide_period'
  'idTvma'
  'r2dvar'
  1.0d0

'tide_Cmin'                                        ! Input
  'minimum tidal current, ellipse minor axis'
  'meter second-1'                                 ! [m/s]
  'tide_Cmin, scalar, series'
  'tide_period'
  'idTvmi'
  'r2dvar'
  1.0d0

'tide_Pamp'                                        ! Input
  'tidal potential elevation amplitude'
  'meter'                                          ! [m]
  'SSH_Pamp, scalar, series'
  'tide_period'
  'idTpam'
  'r2dvar'
  1.0d0

'tide_Pphase'                                      ! Input
  'tidal potential elevation phase angle'
  'degrees'                                        ! [radians]
  'SSH_Pphase, scalar, series'
  'tide_period'
  'idTpph'
  'r2dvar'
  0.017453292519943295                             ! pi/180

'tide_m2amp'                                       ! Input
  'tidal velocity amplitude'
  'meter second-1'                                 ! m/s
  'tide_m2amp, scalar'
  'tide_period'
  'idM2am'
  'r2dvar'
  1.0

!
!------------------------------------------------------------------------------
!  River forcing variables.
!------------------------------------------------------------------------------
!

'river_Xposition'                                  ! Input
  'river runoff  XI-positions at RHO-points'
  'nondimensional'                                 ! [nondimensional]
  'river_Xposition, scalar'
  'river'
  'idRxpo'
  'nulvar'
  1.0d0

'river_Eposition'                                  ! Input
  'river runoff ETA-positions at RHO-points'
  'nondimensional'                                 ! [nondimensional]
  'river_Eposition'
  'river'
  'idRepo'
  'nulvar'
  1.0d0

'river_direction'                                  ! Input
  'river runoff direction'
  'nondimensional'                                 ! [nondimensional]
  'river_direction, scalar'
  'river'
  'idRdir'
  'nulvar'
  1.0d0

'river_Vshape'                                     ! Input
  'river runoff mass transport vertical profile'
  'nondimensional'                                 ! [nondimensional]
  'river_Vshape, scalar'
  'river'
  'idRvsh'
  'nulvar'
  1.0d0

'river_transport'                                  ! Input
  'river runoff mass transport'
  'meter3 second-1'                                ! [m3/s]
  'river_transport, scalar, series'
  'river_time'
  'idRtra'
  'nulvar'
  1.0d0

'river_flag'                                       ! Input
  'river runoff flag'
  'nondimensional'                                 ! [nondimensional]
  'river_flag, scalar'
  'river'
  'idRflg'
  'nulvar'
  1.0d0

'river_temp'                                       ! Input
  'river runoff potential temperature'
  'Celsius'                                        ! [Celsius]
  'river_temp, scalar, series'
  'river_time'
  'idRtrc(itemp)'
  'nulvar'
  1.0d0

'river_salt'                                       ! Input
  'river runoff salinity'
  'nondimensional'                                 ! [PSU]
  'river_salt, scalar, series'
  'river_time'
  'idRtrc(isalt)'
  'nulvar'
  1.0d0

'river_dye_'                                       ! Input
  'river runoff dye concentration'
  'kilogram meter-3'                               ! [kg/m3]
  'river_dye, scalar, series'
  'river_time'
  'idRtrc(inert(i))'
  'nulvar'
  1.0d0

'river_mud_'                                       ! Input
  'river runoff suspended sediment concentration'
  'kilogram meter-3'                               ! [kg/m3]
  'river_sediment, scalar, series'
  'river_time'
  'idRtrc(idmud)'
  'nulvar'
  1.0d0

'river_sand_'                                      ! Input
  'river runoff suspended sediment concentration'
  'kilogram meter-3'                               ! [kg/m3]
  'river_sediment, scalar, series'
  'river_time'
  'idRtrc(isand)'
  'nulvar'
  1.0d0

'river_nutrient'                                   ! Input
  'river runoff nutrient'
  'millimole_nitrogen meter-3'                     ! [millimole/m3]
  'river_nutrient, scalar, series'
  'river_time'
  'idRtrc(iNutr)'
  'nulvar'
  1.0d0


!
!------------------------------------------------------------------------------
!  Boundary layer variables.
!------------------------------------------------------------------------------
!

'Hsbl'                                             ! Input/Output
  'depth of oceanic surface boundary layer'
  'meter'                                          ! [m]
  'Hsbl, scalar, series'
  'ocean_time'
  'idHsbl'
  'r2dvar'
  1.0d0

'Hbbl'                                             ! Input/Output
  'depth of oceanic bottom boundary layer'
  'meter'                                          ! [m]
  'Hbbl, scalar, series'
  'ocean_time'
  'idHbbl'
  'r2dvar'
  1.0d0

!
!------------------------------------------------------------------------------
!  Climatotogy variables.
!------------------------------------------------------------------------------
!

'zeta'                                             ! Input
  'sea surface height climatology'
  'meter'                                          ! [m]
  'zeta, scalar, series'
  'ocean_time'
  'idSSHc'
  'r2dvar'
  1.0d0

'ubar'                                             ! Input
  'vertically integrated u-momentum climatology'
  'meter second-1'                                 ! [m/s]
  'ubar-velocity, scalar, series'
  'ocean_time'
  'idUbcl'
  'u2dvar'
  1.0d0

'vbar'                                             ! Input
  'vertically integrated v-momentum climatology'
  'meter second-1'                                 ! [m/s]
  'vbar-velocity, scalar, series'
  'ocean_time'
  'idVbcl'
  'v2dvar'
  1.0d0

'u'                                                ! Input
  'u-momentum component climatology'
  'meter second-1'                                 ! [m/s]
  'u-velocity, scalar, series'
  'ocean_time'
  'idUclm'
  'u3dvar'
  1.0d0

'v'                                                ! Input
  'v-momentum component climatology'
  'meter second-1'                                 ! [m/s]
  'v-velocity, scalar, series'
  'ocean_time'
  'idVclm'
  'v3dvar'
  1.0d0

'omega'
  'S-coordinate vertical momentum climatology'
  'meter3 second-1'
  'omega, scalar, series'
  'ocean_time'
  'idOclm'
  'w3dvar'
  1.0d0

'SSS'                                              ! Input
  'sea surface salinity climatology'
  'nondimensional'                                 ! [PSU]
  'SSS, scalar, series'
  'sss_time'
  'idSSSc'
  'r2dvar'
  1.0d0

'SST'                                              ! Input
  'sea surface temperature climatology'
  'Celsius'                                        ! [Celsius]
  'SST, scalar, series'
  'sst_time'
  'idSSTc'
  'r2dvar'
  1.0d0

!
!------------------------------------------------------------------------------
!  Adjoint sensitivy variables.  The units below are the same as the state.
!  However, the input functional can have squared, energy, nondimensional,
!  or other units.
!------------------------------------------------------------------------------
!

'zeta'                                             ! Input
  'sea surface height functional'
  'meter'                                          ! [m]
  'zeta, scalar, series'
  'zeta_time'
  'idZads'
  'r2dvar'
  1.0d0

'ubar'                                             ! Input
  'vertically integrated u-momentum functional'
  'meter second-1'                                 ! [m/s]
  'ubar-velocity, scalar, series'
  'v2d_time'
  'idUbas'
  'u2dvar'
  1.0d0

'vbar'                                             ! Input
  'vertically integrated v-momentum functional'
  'meter second-1'                                 ! [m/s]
  'vbar-velocity, scalar, series'
  'v2d_time'
  'idVbas'
  'v2dvar'
  1.0d0

'u'                                                ! Input
  'u-momentum component functional'
  'meter second-1'                                 ! [m/s]
  'u-velocity, scalar, series'
  'v3d_time'
  'idUads'
  'u3dvar'
  1.0d0

'v'                                                ! Input
  'v-momentum component functional'
  'meter second-1'                                 ! [m/s]
  'v-velocity, scalar, series'
  'v3d_time'
  'idVads'
  'v3dvar'
  1.0d0

'temp'                                             ! Input
  'potential temperature functional'
  'Celsius'                                        ! [Celsius]
  'temp_time, scalar, series'
  'temp_time'
  'idTads(itemp)'
  'r3dvar'
  1.0d0

'salt'                                             ! Input
  'salinity functional'
  'nondimensional'                                 ! [PSU]
  'salt_time, scalar, series'
  'salt_time'
  'idTads(isalt)'
  'r3dvar'
  1.0d0

!
!------------------------------------------------------------------------------
!  Tangent linear model impulse forcing variables.
!
!  Notice that additional metadata is need here because with need different
!  indices to avoid conflict with the forward basic state variables. They
!  are used at the same time. The passive tracers (NAT+1:NT) are assigned
!  internally to the same values as the basic state.
!------------------------------------------------------------------------------
!

'zeta'                                             ! Input
  'free-surface impulse forcing'
  'meter'                                          ! [m]
  'zeta, scalar, series'
  'zeta_time'
  'idZtlf'
  'r2dvar'
  1.0d0

'ubar'                                             ! Input
  'vertically integrated u-momentum impulse forcing'
  'meter second-1'                                 ! [m/s]
  'ubar-velocity, scalar, series'
  'v2d_time'
  'idUbtf'
  'u2dvar'
  1.0d0

'vbar'                                             ! Input
  'vertically integrated v-momentum impulse forcing'
  'meter second-1'                                 ! [m/s]
  'vbar-velocity, scalar, series'
  'v2d_time'
  'idVbtf'
  'v2dvar'
  1.0d0

'u'                                                ! Input
  'u-momentum component impulse forcing'
  'meter second-1'                                 ! [m/s]
  'u-velocity, scalar, series'
  'v3d_time'
  'idUtlf'
  'u3dvar'
  1.0d0

'v'                                                ! Input
  'v-momentum component impulse forcing'
  'meter second-1'                                 ! [m/s]
  'v-velocity, scalar, series'
  'v3d_time'
  'idVtlf'
  'v3dvar'
  1.0d0

'temp'                                             ! Input
  'potential temperature impulse forcing'
  'Celsius'                                        ! [Celsius]
  'temp_time, scalar, series'
  'temp_time'
  'idTtlf(itemp)'
  'r3dvar'
  1.0d0

'salt'                                             ! Input
  'salinity functional'
  'nondimensional'                                 ! [PSU]
  'salt_time, scalar, series'
  'salt_time'
  'idTtlf(isalt)'
  'r3dvar'
  1.0d0

!
!------------------------------------------------------------------------------
!  Observation variables: Optimal Interpolation and Nudging.
!------------------------------------------------------------------------------
!

'SSH'                                              ! Input
  'sea surface height observations'
  'meter'                                          ! [m]
  'SSHobs, scalar, series'
  'SSHobs_time'
  'idSSHo'
  'r2dvar'
  1.0d0

'SSH_err'                                          ! Input
  'sea surface height error variance'
  'nondimensional'                                 ! [nondimenisional]
  'SSH_err, scalar, series'
  'SSHobs_time'
  'idSSHe'
  'r2dvar'
  1.0d0

'u'                                                ! Input
  'u-momentum component observations'
  'meter second-1'                                 ! [m/s]
  'Uobs, scalar, series'
  'Vobs_time'
  'idUobs'
  'u3dvar'
  1.0d0

'v'                                                ! Input
  'v-momentum component observations'
  'meter second-1'                                 ! [m/s]
  'Vobs, scalar, series'
  'Vobs_time'
  'idVobs'
  'v3dvar'
  1.0d0

'Evel'                                             ! Input
  'horizontal velocity error variance'
  'nondimensional'                                 ! [nondimensional]
  'Evel, scalar, series'
  'Vobs_time'
  'idUVer'
  'r3dvar'
  1.0d0

'Usur'                                             ! Input
  'surface u-momentum component observations'
  'meter second-1'                                 ! [m/s]
  'Usur, scalar, series'
  'Vsur_time'
  'idUsur'
  'u2dvar'
  1.0d0

'Vsur'                                             ! Input
  'surface v-momentum component observations'
  'meter second-1'                                 ! [m/s]
  'Vsur, scalar, series'
  'Vsur_time'
  'idVsur'
  'v2dvar'
  1.0d0

'Esur'                                             ! Input
  'surface velocity error variance'
  'nondimensional'                                 ! [nondimensional]
  'Esur, scalar, series'
  'Vsur_time'
  'idUVse'
  'r2dvar'
  1.0d0

'SST'                                              ! Input
  'sea surface temperature observations'
  'Celsius'                                        ! [Celsius]
  'SSTobs, scalar, series'
  'SSTobs_time'
  'idSSTo'
  'r2dvar'
  1.0d0

'SST_err'                                          ! Input
  'sea surface temperature error variance'
  'nondimensional'                                 ! [nondimensional]
  'SST_err, scalar, series'
  'SSTobs_time'
  'idSSTe'
  'r2dvar'
  1.0d0

'temp'                                             ! Input
  'potential temperature observations'
  'Celsius'                                        ! [nondimensional]
  'Tobs, scalar, series'
  'Tobs_time'
  'idTobs(itemp)'
  'r3dvar'
  1.0d0

'temp_err'                                         ! Input
  'potential temperature error variance'
  'nondimensional'                                 ! [nondimensional]
  'temp_err, scalar, series'
  'Tobs_time'
  'idTerr(itemp)'
  'r3dvar'
  1.0d0

'salt'                                             ! Input
  'salinity observations'
  'nondimensional'                                 ! [PSU]
  'Sobs, scalar, series'
  'Sobs_time'
  'idTobs(isalt)'
  'r3dvar'
  1.0d0

'salt_err'                                         ! Input
  'salinity error variance'
  'nondimensional'                                 ! [nondimensional]
  'salt_err, scalar, series'
  'Sobs_time'
  'idTerr(isalt)'
  'r3dvar'
  1.0d0

!
!------------------------------------------------------------------------------
!  Inert passive tracer variables.
!------------------------------------------------------------------------------
!
!  Only one entry should be specified here.  This entry contain all the
!  information necessary to process all NPT fields.  The variable name is
!  arbitrary and you may choose any unique name for Vinfo(1) that is not
!  already defined. The identifier for Vinfo(6) must be "idTvar(inert(i))".
!

'dye_'                                             ! Input/Output
  'dye concentration'
  'kilogram meter-3'                               ! [kg/m3]
  'dye_, scalar, series'
  'ocean_time'
  'idTvar(inert(i))'
  'r3dvar'
  1.0d0

'dye_west_'                                        ! Input
  'dye concentration western boundary condition'
  'kilogram meter-3'                               ! [kg/m3]
  'dye_west_, scalar, series'
  'dye_time'
  'idTbry(iwest,inert(i))'
  'nulvar'
  1.0d0

'dye_east_'                                        ! Input
  'dye concentration eastern boundary condition'
  'kilogram meter-3'                               ! [kg/m3]
  'dye_east_, scalar, series'
  'dye_time'
  'idTbry(ieast,inert(i))'
  'nulvar'
  1.0d0

'dye_south_'                                       ! Input
  'dye concentration southern boundary condition'
  'kilogram meter-3'                               ! [kg/m3]
  'dye_south_, scalar, series'
  'dye_time'
  'idTbry(isouth,inert(i))'
  'nulvar'
  1.0d0

'dye_north_'                                       ! Input
  'dye concentration northern boundary condition'
  'kilogram meter-3'                               ! [kg/m3]
  'dye_north_, scalar, series'
  'dye_time'
  'idTbry(inorth,inert(i))'
  'nulvar'
  1.0d0

!
!------------------------------------------------------------------------------
!  Sediment variables:  The actual variable name for some of the sediment
!                       tracers are set-up internally in "mod_ncparam.F".
!  It depends on the mumber of cohesive and noncohesive sediment tracers
!  for a particular application. For example if you have 1 cohesive and
!  2 noncohesive sediment classes, the variable names are:
!
!    "mud_"          becomes   "mud_01"
!    "mud_west_"     becomes   "mud_west_01"
!    "mud_east_"     becomes   "mud_east_01"
!    "mud_south_"    becomes   "mud_south_01"
!    "mud_north_"    becomes   "mud_north_01"
!
!    "sand_"         becomes   "sand_01",       "sand_02"
!    "sand_west"     becomes   "sand_west_01",  "sand_west_02"
!    "sand_east"     becomes   "sand_east_01",  "sand_east_02"
!    "sand_south"    becomes   "sand_south_01", "sand_south_02"
!    "sand_north"    becomes   "sand_north_01", "sand_north_02"
!------------------------------------------------------------------------------
!

'mud_'                                             ! Input/Output
  'suspended cohesive sediment'
  'kilogram meter-3'                               ! [kg/m3]
  'mud_, scalar, series'
  'ocean_time'
  'idTvar(idmud(i))'
  'r3dvar'
  1.0d0

'mud_west_'                                        ! Input
  'suspended cohesive sediment western boundary condition'
  'kilogram meter-3'                               ! [kg/m3]
  'mud_west_, scalar, series'
  'mud_time'
  'idTbry(iwest,idmud(i))'
  'r3dvar'
  1.0d0

'mud_east_'                                        ! Input
  'suspended cohesive sediment eastern boundary condition'
  'kilogram meter-3'                               ! [kg/m3]
  'mud_east_, scalar, series'
  'mud_time'
  'idTbry(ieast,idmud(i))'
  'nulvar'
  1.0d0

'mud_south_'                                       ! Input
  'suspended cohesive sediment southern boundary condition'
  'kilogram meter-3'                               ! [kg/m3]
  'mud_south_, scalar, series'
  'mud_time'
  'idTbry(isouth,idmud(i))'
  'nulvar'
  1.0d0

'mud_north_'                                       ! Input
  'suspended cohesive sediment northern boundary condition'
  'kilogram meter-3'                               ! [kg/m3]
  'mud_north_, scalar, series'
  'mud_time'
  'idTbry(inorth,idmud(i))'
  'nulvar'
  1.0d0

'sand_'                                            ! Input/Output
  'suspended noncohesive sediment'
  'kilogram meter-3'                               ! [kg/m3]
  'sand_, scalar, series'
  'ocean_time'
  'idTvar(isand(i))'
  'r3dvar'
  1.0d0

'sand_west_'                                       ! Input
  'suspended noncohesive sediment western boundary condition'
  'kilogram meter-3'                               ! [kg/m3]
  'sand_west_, scalar, series'
  'sand_time'
  'idTbry(iwest,isand(i))'
  'nulvar'
  1.0d0

'sand_east_'                                       ! Input
  'suspended noncohesive sediment eastern boundary condition'
  'kilogram meter-3'                               ! [kg/m3]
  'sand_east_, scalar, series'
  'sand_time'
  'idTbry(ieast,isand(i))'
  'nulvar'
  1.0d0

'sand_south_'                                      ! Input
  'suspended noncohesive sediment southern boundary condition'
  'kilogram meter-3'                               ! [kg/m3]
  'sand_south_, scalar, series'
  'sand_time'
  'idTbry(isouth,isand(i))'
  'nulvar'
  1.0d0

'sand_north_'                                      ! Input
  'suspended noncohesive sediment northern boundary condition'
  'kilogram meter-3'                               ! [kg/m3]
  'sand_north_, scalar, series'
  'sand_time'
  'idTbry(inorth,isand(i))'
  'nulvar'
  1.0d0

'mudfrac_'                                         ! Input/Output
  'cohesive sediment fraction'
  'nondimensional'                                 ! [nondimensional]
  'mudfrac_, scalar, series'
  'ocean_time'
  'idfrac'
  'b3dvar'
  1.0d0

'sandfrac_'                                        ! Input/Output
  'noncohesive sediment fraction'
  'nondimensional'                                 ! [nondimensional]
  'sandfrac_, scalar, series'
  'ocean_time'
  'idfrac'
  'b3dvar'
  1.0d0

'mudmass_'                                         ! Input/Output
  'cohesive sediment mass'
  'kilogram meter-2'                               ! [kg/m2]
  'mudmass_, scalar, series'
  'ocean_time'
  'idBmas'
  'b3dvar'
  1.0d0

'sandmass_'                                        ! Input/Output
  'noncohesive sediment mass'
  'kilogram meter-2'                               ! [kg/m2]
  'sandmass_, scalar, series'
  'ocean_time'
  'idBmas'
  'b3dvar'
  1.0d0

'bedload_Usand_'                                   ! Input/Output
  'bed load flux of sand in U-direction'
  'kilogram meter-1 s-1'                           ! [kg/m/s]
  'bedload_Usand_, scalar, series'
  'ocean_time'
  'idUbld'
  'u2dvar'
  1.0d0

'bedload_Umud_'                                    ! Input/Output
  'bed load flux of mud in U-direction'
  'kilogram meter-1 s-1'                           ! [kg/m/s]
  'bedload_Umud_, scalar, series'
  'ocean_time'
  'idUbld'
  'u2dvar'
  1.0d0

'bedload_Vsand_'                                   ! Input/Output
  'bed load flux of sand in V-direction'
  'kilogram meter-1 s-1'                           ! [kg/m/s]
  'bedload_Vsand_, scalar, series'
  'ocean_time'
  'idVbld'
  'v2dvar'
  1.0d0

'bedload_Vmud_'                                    ! Input/Output
  'bed load flux of mud in V-direction'
  'kilogram meter-1 s-1'                           ! [kg/m/s]
  'bedload_Vmud_, scalar, series'
  'ocean_time'
  'idVbld'
  'v2dvar'
  1.0d0

'ero_flux'                                         ! Output
  'erosion flux'
  'kilogram meter-2'                               ! [kg/m2]
  'ero_flux, scalar, series'
  'ocean_time'
  'idBott(idefx)'
  'r2dvar'
  1.0d0

'dep_net'                                          ! Output
  'erosion or deposition'
  'meter'                                          ! [m]
  'dep_net, scalar, series'
  'ocean_time'
  'idBott(idnet)'
  'r2dvar'
  1.0d0

'tau_crit_off'                                     ! Output
  'Offset for critical shear stress equation'
  'kg/Pa/s'                                        ! [kg/Pa/s]
  'tau_crit_off, scalar, series'
  'ocean_time'
  'idBott(idoff)'
  'r2dvar'
  1.0d0

'tau_crit_slope'                                   ! Output
  'Slope for critical shear stress equation'
  'Pa/s'                                           ! [Pa/s]
  'tau_crit_slope, scalar, series'
  'ocean_time'
  'idBott(idslp)'
  'r2dvar'
  1.0d0

'tau_crit_time'                                    ! Output
  'Nudging time for critical shear stress equation'
  's-1'                                            ! [s-1]
  'tau_crit_time, scalar, series'
  'ocean_time'
  'idBott(idtim)'
  'r2dvar'
  1.0d0

'bed_thickness'                                    ! Input/Output
  'sediment bed layer thickness'
  'meter'                                          ! [m]
  'bed_thickness, scalar, series'
  'ocean_time'
  'idSbed(ithck)'
  'b3dvar'
  1.0d0

'bed_age'                                          ! Input/Output
  'sediment layer age'
  'seconds'                                        ! [s]
  'bed_age, scalar, series'
  'ocean_time'
  'idSbed(iaged)'
  'b3dvar'
  1.0d0

'bed_porosity'                                     ! Input/Output
  'sediment layer porosity'
  'nondimensional'                                 ! [nondimensional]
  'bed_porosity, scalar, series'
  'ocean_time'
  'idSbed(iporo)'
  'b3dvar'
  1.0d0

'bed_biodiff'                                      ! Input/Output
  'biodiffusivity at bottom of each layer'
  'meter2 second-1'                                ! [m2/s]
  'bed_biodiff, scalar, series'
  'ocean_time'
  'idSbed(idiff)'
  'b3dvar'
  1.0d0

'bed_tau_crit'                                     ! Input/Output
  'tau critical in each layer'
  'Newtons meter-2'                                ! [N/m2]
  'bed_tau_crit, scalar, series'
  'ocean_time'
  'idSbed(ibtcr)'
  'b3dvar'
  1.0d0

'grain_diameter'                                   ! Input/Output
  'sediment median grain diameter size'
  'meter'                                          ! [m]
  'grain_diameter, scalar, series'
  'ocean_time'
  'idBott(isd50)'
  'r2dvar'
  1.0d0

'grain_density'                                    ! Input/Output
  'sediment median grain density'
  'kilogram meter3'                                ! [kg/m3]
  'grain_density, scalar, series'
  'ocean_time'
  'idBott(idens)'
  'r2dvar'
  1.0d0

'settling_vel'                                     ! Input/Output
  'sediment median grain settling velocity'
  'meter second-1'                                 ! [m/s]
  'settling_vel, scalar, series'
  'ocean_time'
  'idBott(iwsed)'
  'r2dvar'
  1.0d0

'erosion_stress'                                   ! Input/Output
  'sediment median critical erosion stress'
  'newton meter-2'                                 ! [N/m2]
  'erosion_stress, scalar, series'
  'ocean_time'
  'idBott(itauc)'
  'r2dvar'
  1.0d0

'ripple_length'                                    ! Input/Output
  'bottom ripple length'
  'meter'                                          ! [m]
  'ripple_length, scalar, series'
  'ocean_time'
  'idBott(irlen)'
  'r2dvar'
  1.0d0

'ripple_height'                                    ! Input/Output
  'bottom ripple height'
  'meter'                                          ! [m]
  'ripple_height, scalar, series'
  'ocean_time'
  'idBott(irhgt)'
  'r2dvar'
  1.0d0

'bed_wave_amp'                                     ! Input/Output
  'bed wave excursion amplitude'
  'meter'                                          ! [m]
  'bed_wave_amp, scalar, series'
  'ocean_time'
  'idBott(ibwav)'
  'r2dvar'
  1.0d0

'rdrg_grid'                                            ! Input/Output
  'linear bottom drag coefficient'
  'meter second-1'                                 ! [m/s]
  'rdrag, scalar, series'
  'ocean_time'
  'idragL'
  'r2dvar'
  1.0d0

'rdrag2'                                           ! Input/Output
  'quadratic bottom drag coefficient'
  'nondimensional'                                 ! [nondimensional]
  'rdrag2, scalar, series'
  'ocean_time'
  'idragQ'
  'r2dvar'
  1.0d0

'wavedrag'                                         ! Input/Output
  'linear bottom drag coefficient'
  'meter second-1'                                 ! [m/s]
  'wavedrag, scalar, series'
  'ocean_time'
  'idragW'
  'r2dvar'
  1.0d0

'ZoBot'                                            ! Input/Output
  'time invariant, bottom roughness length'
  'meter'                                          ! [m]
  'ZoBot, scalar, series'
  'ocean_time'
  'idZoBL'
  'r2dvar'
  1.0d0

'Zo_def'                                           ! Input/Output
  'default bottom roughness length'
  'meter'                                          ! [m]
  'Zo_def, scalar, series'
  'ocean_time'
  'idBott(izdef)'
  'r2dvar'
  1.0d0

'Zo_app'                                           ! Input/Output
  'apparent bottom roughness length'
  'meter'                                          ! [m]
  'Zo_app, scalar, series'
  'ocean_time'
  'idBott(izapp)'
  'r2dvar'
  1.0d0

'Zo_Nik'                                           ! Input/Output
  'Nikaradse bottom roughness length'
  'meter'                                          ! [m]
  'Zo_Nik, scalar, series'
  'ocean_time'
  'idBott(izNik)'
  'r2dvar'
  1.0d0

'Zo_bio'                                           ! Input/Output
  'biological bottom roughness length'
  'meter'                                          ! [m]
  'Zo_bio, scalar, series'
  'ocean_time'
  'idBott(izbio)'
  'r2dvar'
  1.0d0

'Zo_bedform'                                       ! Input/Output
  'bed form bottom roughness length'
  'meter'                                          ! [m]
  'Zo_bedform, scalar, series'
  'ocean_time'
  'idBott(izbfm)'
  'r2dvar'
  1.0d0

'Zo_bedload'                                       ! Input/Output
  'bed load bottom roughness length'
  'meter'                                          ! [m]
  'Zo_bedload, scalar, series'
  'ocean_time'
  'idBott(izbld)'
  'r2dvar'
  1.0d0

'Zo_wbl'                                           ! Input/Output
  'wave bottom boundary layer roughness length'
  'meter'                                          ! [m]
  'Zo_wbl, scalar, series'
  'ocean_time'
  'idBott(izwbl)'
  'r2dvar'
  1.0d0

'active_layer_thickness'                           ! Input/Output
  'active layer thickness'
  'meter'                                          ! [m]
  'active_layer_thickness, scalar, series'
  'ocean_time'
  'idBott(iactv)'
  'r2dvar'
  1.0d0

'cohesive_behavior'                                ! Output
  'cohesive behavior'
  '1'                                              ! []
  'cohesive_behavior, scalar, series'
  'ocean_time'
  'idBott(idprp)'
  'r2dvar'
  1.0d0

'saltation'                                        ! Input/Output
  'bottom saltation height'
  'meter'                                          ! [m]
  'saltation, scalar, series'
[...]
  'ocean_time'
  'iDbio3(iflx_Ege_NCaO_DetF)'
  'r3dvar'
  1.0d0

'Gra_PhS_EupS'
  'grazing/predation flux from PhS to EupS'
  'mg C m^-2 d^-1'
  'StatVar, scalar, series'
  'ocean_time'
  'iDbio3(iflx_Gra_PhS_EupS)'
  'r3dvar'
  1.0d0

'Gra_PhL_EupS'
  'grazing/predation flux from PhL to EupS'
  'mg C m^-2 d^-1'
  'StatVar, scalar, series'
  'ocean_time'
  'iDbio3(iflx_Gra_PhL_EupS)'
  'r3dvar'
  1.0d0

'Gra_MZL_EupS'
  'grazing/predation flux from MZL to EupS'
  'mg C m^-2 d^-1'
  'StatVar, scalar, series'
  'ocean_time'
  'iDbio3(iflx_Gra_MZL_EupS)'
  'r3dvar'
  1.0d0

'Gra_Cop_EupS'
  'grazing/predation flux from Cop to EupS'
  'mg C m^-2 d^-1'
  'StatVar, scalar, series'
  'ocean_time'
  'iDbio3(iflx_Gra_Cop_EupS)'
  'r3dvar'
  1.0d0

'Gra_IPhL_EupS'
  'grazing/predation flux from IPhL to EupS'
  'mg C m^-2 d^-1'
  'StatVar, scalar, series'
  'ocean_time'
  'iDbio3(iflx_Gra_IPhL_EupS)'
  'r3dvar'
  1.0d0

'Gra_Det_EupS'
  'grazing/predation flux from Det to EupS'
  'mg C m^-2 d^-1'
  'StatVar, scalar, series'
  'ocean_time'
  'iDbio3(iflx_Gra_Det_EupS)'
  'r3dvar'
  1.0d0

'Gra_DetF_EupS'
  'grazing/predation flux from DetF to EupS'
  'mg C m^-2 d^-1'
  'StatVar, scalar, series'
  'ocean_time'
  'iDbio3(iflx_Gra_DetF_EupS)'
  'r3dvar'
  1.0d0

'Ege_EupS_DetF'
  'egestion flux from EupS to DetF'
  'mg C m^-2 d^-1'
  'StatVar, scalar, series'
  'ocean_time'
  'iDbio3(iflx_Ege_EupS_DetF)'
  'r3dvar'
  1.0d0

'Gra_PhS_EupO'
  'grazing/predation flux from PhS to EupO'
  'mg C m^-2 d^-1'
  'StatVar, scalar, series'
  'ocean_time'
  'iDbio3(iflx_Gra_PhS_EupO)'
  'r3dvar'
  1.0d0

'Gra_PhL_EupO'
  'grazing/predation flux from PhL to EupO'
  'mg C m^-2 d^-1'
  'StatVar, scalar, series'
  'ocean_time'
  'iDbio3(iflx_Gra_PhL_EupO)'
  'r3dvar'
  1.0d0

'Gra_MZL_EupO'
  'grazing/predation flux from MZL to EupO'
  'mg C m^-2 d^-1'
  'StatVar, scalar, series'
  'ocean_time'
  'iDbio3(iflx_Gra_MZL_EupO)'
  'r3dvar'
  1.0d0

'Gra_Cop_EupO'
  'grazing/predation flux from Cop to EupO'
  'mg C m^-2 d^-1'
  'StatVar, scalar, series'
  'ocean_time'
  'iDbio3(iflx_Gra_Cop_EupO)'
  'r3dvar'
  1.0d0

'Gra_IPhL_EupO'
  'grazing/predation flux from IPhL to EupO'
  'mg C m^-2 d^-1'
  'StatVar, scalar, series'
  'ocean_time'
  'iDbio3(iflx_Gra_IPhL_EupO)'
  'r3dvar'
  1.0d0

'Gra_Det_EupO'
  'grazing/predation flux from Det to EupO'
  'mg C m^-2 d^-1'
  'StatVar, scalar, series'
  'ocean_time'
  'iDbio3(iflx_Gra_Det_EupO)'
  'r3dvar'
  1.0d0

'Gra_DetF_EupO'
  'grazing/predation flux from DetF to EupO'
  'mg C m^-2 d^-1'
  'StatVar, scalar, series'
  'ocean_time'
  'iDbio3(iflx_Gra_DetF_EupO)'
  'r3dvar'
  1.0d0

'Ege_EupO_DetF'
  'egestion flux from EupO to DetF'
  'mg C m^-2 d^-1'
  'StatVar, scalar, series'
  'ocean_time'
  'iDbio3(iflx_Ege_EupO_DetF)'
  'r3dvar'
  1.0d0

'Gra_Cop_Jel'
  'grazing/predation flux from Cop to Jel'
  'mg C m^-2 d^-1'
  'StatVar, scalar, series'
  'ocean_time'
  'iDbio3(iflx_Gra_Cop_Jel)'
  'r3dvar'
  1.0d0

'Gra_EupS_Jel'
  'grazing/predation flux from EupS to Jel'
  'mg C m^-2 d^-1'
  'StatVar, scalar, series'
  'ocean_time'
  'iDbio3(iflx_Gra_EupS_Jel)'
  'r3dvar'
  1.0d0

'Gra_EupO_Jel'
  'grazing/predation flux from EupO to Jel'
  'mg C m^-2 d^-1'
  'StatVar, scalar, series'
  'ocean_time'
  'iDbio3(iflx_Gra_EupO_Jel)'
  'r3dvar'
  1.0d0

'Gra_NCaS_Jel'
  'grazing/predation flux from NCaS to Jel'
  'mg C m^-2 d^-1'
  'StatVar, scalar, series'
  'ocean_time'
  'iDbio3(iflx_Gra_NCaS_Jel)'
  'r3dvar'
  1.0d0

'Gra_NCaO_Jel'
  'grazing/predation flux from NCaO to Jel'
  'mg C m^-2 d^-1'
  'StatVar, scalar, series'
  'ocean_time'
  'iDbio3(iflx_Gra_NCaO_Jel)'
  'r3dvar'
  1.0d0

'Ege_Jel_DetF'
  'egestion flux from Jel to DetF'
  'mg C m^-2 d^-1'
  'StatVar, scalar, series'
  'ocean_time'
  'iDbio3(iflx_Ege_Jel_DetF)'
  'r3dvar'
  1.0d0

'Mor_PhS_Det'
  'other mortality flux from PhS to Det'
  'mg C m^-2 d^-1'
  'StatVar, scalar, series'
  'ocean_time'
  'iDbio3(iflx_Mor_PhS_Det)'
  'r3dvar'
  1.0d0

'Mor_PhL_Det'
  'other mortality flux from PhL to Det'
  'mg C m^-2 d^-1'
  'StatVar, scalar, series'
  'ocean_time'
  'iDbio3(iflx_Mor_PhL_Det)'
  'r3dvar'
  1.0d0

'Mor_MZL_Det'
  'other mortality flux from MZL to Det'
  'mg C m^-2 d^-1'
  'StatVar, scalar, series'
  'ocean_time'
  'iDbio3(iflx_Mor_MZL_Det)'
  'r3dvar'
  1.0d0

'Mor_Cop_DetF'
  'other mortality flux from Cop to DetF'
  'mg C m^-2 d^-1'
  'StatVar, scalar, series'
  'ocean_time'
  'iDbio3(iflx_Mor_Cop_DetF)'
  'r3dvar'
  1.0d0

'Mor_NCaS_DetF'
  'other mortality flux from NCaS to DetF'
  'mg C m^-2 d^-1'
  'StatVar, scalar, series'
  'ocean_time'
  'iDbio3(iflx_Mor_NCaS_DetF)'
  'r3dvar'
  1.0d0

'Mor_EupS_DetF'
  'other mortality flux from EupS to DetF'
  'mg C m^-2 d^-1'
  'StatVar, scalar, series'
  'ocean_time'
  'iDbio3(iflx_Mor_EupS_DetF)'
  'r3dvar'
  1.0d0

'Mor_NCaO_DetF'
  'other mortality flux from NCaO to DetF'
  'mg C m^-2 d^-1'
  'StatVar, scalar, series'
  'ocean_time'
  'iDbio3(iflx_Mor_NCaO_DetF)'
  'r3dvar'
  1.0d0

'Mor_EupO_DetF'
  'other mortality flux from EupO to DetF'
  'mg C m^-2 d^-1'
  'StatVar, scalar, series'
  'ocean_time'
  'iDbio3(iflx_Mor_EupO_DetF)'
  'r3dvar'
  1.0d0

'Mor_Jel_DetF'
  'other mortality flux from Jel to DetF'
  'mg C m^-2 d^-1'
  'StatVar, scalar, series'
  'ocean_time'
  'iDbio3(iflx_Mor_Jel_DetF)'
  'r3dvar'
  1.0d0

'Res_PhS_NH4'
  'respiration flux from PhS to NH4'
  'mg C m^-2 d^-1'
  'StatVar, scalar, series'
  'ocean_time'
  'iDbio3(iflx_Res_PhS_NH4)'
  'r3dvar'
  1.0d0

'Res_PhL_NH4'
  'respiration flux from PhL to NH4'
  'mg C m^-2 d^-1'
  'StatVar, scalar, series'
  'ocean_time'
  'iDbio3(iflx_Res_PhL_NH4)'
  'r3dvar'
  1.0d0

'Res_MZL_NH4'
  'respiration flux from MZL to NH4'
  'mg C m^-2 d^-1'
  'StatVar, scalar, series'
  'ocean_time'
  'iDbio3(iflx_Res_MZL_NH4)'
  'r3dvar'
  1.0d0

'Res_Cop_NH4'
  'respiration flux from Cop to NH4'
  'mg C m^-2 d^-1'
  'StatVar, scalar, series'
  'ocean_time'
  'iDbio3(iflx_Res_Cop_NH4)'
  'r3dvar'
  1.0d0

'Res_NCaS_NH4'
  'respiration flux from NCaS to NH4'
  'mg C m^-2 d^-1'
  'StatVar, scalar, series'
  'ocean_time'
  'iDbio3(iflx_Res_NCaS_NH4)'
  'r3dvar'
  1.0d0

'Res_NCaO_NH4'
  'respiration flux from NCaO to NH4'
  'mg C m^-2 d^-1'
  'StatVar, scalar, series'
  'ocean_time'
  'iDbio3(iflx_Res_NCaO_NH4)'
  'r3dvar'
  1.0d0

'Res_EupS_NH4'
  'respiration flux from EupS to NH4'
  'mg C m^-2 d^-1'
  'StatVar, scalar, series'
  'ocean_time'
  'iDbio3(iflx_Res_EupS_NH4)'
  'r3dvar'
  1.0d0

'Res_EupO_NH4'
  'respiration flux from EupO to NH4'
  'mg C m^-2 d^-1'
  'StatVar, scalar, series'
  'ocean_time'
  'iDbio3(iflx_Res_EupO_NH4)'
  'r3dvar'
  1.0d0

'Res_Jel_NH4'
  'respiration flux from Jel to NH4'
  'mg C m^-2 d^-1'
  'StatVar, scalar, series'
  'ocean_time'
  'iDbio3(iflx_Res_Jel_NH4)'
  'r3dvar'
  1.0d0

'Rem_Det_NH4'
  'remineralization flux from Det to NH4'
  'mg C m^-2 d^-1'
  'StatVar, scalar, series'
  'ocean_time'
  'iDbio3(iflx_Rem_Det_NH4)'
  'r3dvar'
  1.0d0

'Rem_DetF_NH4'
  'remineralization flux from DetF to NH4'
  'mg C m^-2 d^-1'
  'StatVar, scalar, series'
  'ocean_time'
  'iDbio3(iflx_Rem_DetF_NH4)'
  'r3dvar'
  1.0d0

'Nit_NH4_NO3'
  'nitrification flux from NH4 to NO3'
  'mg C m^-2 d^-1'
  'StatVar, scalar, series'
  'ocean_time'
  'iDbio3(iflx_Nit_NH4_NO3)'
  'r3dvar'
  1.0d0

'Gra_Det_Ben'
  'grazing/predation flux from Det to Ben'
  'mg C m^-2 d^-1'
  'StatVar, scalar, series'
  'ocean_time'
  'iDbio3(iflx_Gra_Det_Ben)'
  'r3dvar'
  1.0d0

'Gra_DetF_Ben'
  'grazing/predation flux from DetF to Ben'
  'mg C m^-2 d^-1'
  'StatVar, scalar, series'
  'ocean_time'
  'iDbio3(iflx_Gra_DetF_Ben)'
  'r3dvar'
  1.0d0

'Gra_PhS_Ben'
  'grazing/predation flux from PhS to Ben'
  'mg C m^-2 d^-1'
  'StatVar, scalar, series'
  'ocean_time'
  'iDbio3(iflx_Gra_PhS_Ben)'
  'r3dvar'
  1.0d0

'Gra_PhL_Ben'
  'grazing/predation flux from PhL to Ben'
  'mg C m^-2 d^-1'
  'StatVar, scalar, series'
  'ocean_time'
  'iDbio3(iflx_Gra_PhL_Ben)'
  'r3dvar'
  1.0d0

'Gra_DetBen_Ben'
  'grazing/predation flux from DetBen to Ben'
  'mg C m^-2 d^-1'
  'StatVar, scalar, series'
  'ocean_time'
  'iDbio3(iflx_Gra_DetB_Ben)'
  'r3dvar'
  1.0d0

'Exc_Ben_NH4'
  'excretion flux from Ben to NH4'
  'mg C m^-2 d^-1'
  'StatVar, scalar, series'
  'ocean_time'
  'iDbio3(iflx_Exc_Ben_NH4)'
  'r3dvar'
  1.0d0

'Exc_Ben_DetBen'
  'excretion flux from Ben to DetBen'
  'mg C m^-2 d^-1'
  'StatVar, scalar, series'
  'ocean_time'
  'iDbio3(iflx_Exc_Ben_DetB)'
  'r3dvar'
  1.0d0

'Res_Ben_NH4'
  'respiration flux from Ben to NH4'
  'mg C m^-2 d^-1'
  'StatVar, scalar, series'
  'ocean_time'
  'iDbio3(iflx_Res_Ben_NH4)'
  'r3dvar'
  1.0d0

'Mor_Ben_DetBen'
  'other mortality flux from Ben to DetBen'
  'mg C m^-2 d^-1'
  'StatVar, scalar, series'
  'ocean_time'
  'iDbio3(iflx_Mor_Ben_DetB)'
  'r3dvar'
  1.0d0

'Rem_DetBen_NH4'
  'remineralization flux from DetBen to NH4'
  'mg C m^-2 d^-1'
  'StatVar, scalar, series'
  'ocean_time'
  'iDbio3(iflx_Rem_DetB_NH4)'
  'r3dvar'
  1.0d0

'Gpp_INO3_IPhL'
  'gross primary production flux from INO3 to IPhL'
  'mg C m^-2 d^-1'
  'StatVar, scalar, series'
  'ocean_time'
  'iDbio3(iflx_Gpp_INO3_IPhL)'
  'r3dvar'
  1.0d0

'Gpp_INH4_IPhL'
  'gross primary production flux from INH4 to IPhL'
  'mg C m^-2 d^-1'
  'StatVar, scalar, series'
  'ocean_time'
  'iDbio3(iflx_Gpp_INH4_IPhL)'
  'r3dvar'
  1.0d0

'Res_IPhL_INH4'
  'respiration flux from IPhL to INH4'
  'mg C m^-2 d^-1'
  'StatVar, scalar, series'
  'ocean_time'
  'iDbio3(iflx_Res_IPhL_INH4)'
  'r3dvar'
  1.0d0

'Mor_IPhL_INH4'
  'other mortality flux from IPhL to INH4'
  'mg C m^-2 d^-1'
  'StatVar, scalar, series'
  'ocean_time'
  'iDbio3(iflx_Mor_IPhL_INH4)'
  'r3dvar'
  1.0d0

'Nit_INH4_INO3'
  'nitrification flux from INH4 to INO3'
  'mg C m^-2 d^-1'
  'StatVar, scalar, series'
  'ocean_time'
  'iDbio3(iflx_Nit_INH4_INO3)'
  'r3dvar'
  1.0d0

'Twi_IPhL_PhL'
  'ice/water exchange flux from IPhL to PhL'
  'mg C m^-2 d^-1'
  'StatVar, scalar, series'
  'ocean_time'
  'iDbio3(iflx_Twi_IPhL_PhL)'
  'r3dvar'
  1.0d0

'Twi_INO3_NO3'
  'ice/water exchange flux from INO3 to NO3'
  'mg C m^-2 d^-1'
  'StatVar, scalar, series'
  'ocean_time'
  'iDbio3(iflx_Twi_INO3_NO3)'
  'r3dvar'
  1.0d0

'Twi_INH4_NH4'
  'ice/water exchange flux from INH4 to NH4'
  'mg C m^-2 d^-1'
  'StatVar, scalar, series'
  'ocean_time'
  'iDbio3(iflx_Twi_INH4_NH4)'
  'r3dvar'
  1.0d0

'Ver_PhS_DetBen'
  'sinking-to-bottom flux from PhS to DetBen'
  'mg C m^-2 d^-1'
  'StatVar, scalar, series'
  'ocean_time'
  'iDbio3(iflx_Ver_PhS_DetB)'
  'r3dvar'
  1.0d0

'Ver_PhS_Out'
  'sinking-to-bottom flux from PhS to Out'
  'mg C m^-2 d^-1'
  'StatVar, scalar, series'
  'ocean_time'
  'iDbio3(iflx_Ver_PhS_Out)'
  'r3dvar'
  1.0d0

'Ver_PhL_DetBen'
  'sinking-to-bottom flux from PhL to DetBen'
  'mg C m^-2 d^-1'
  'StatVar, scalar, series'
  'ocean_time'
  'iDbio3(iflx_Ver_PhL_DetB)'
  'r3dvar'
  1.0d0

'Ver_PhL_Out'
  'sinking-to-bottom flux from PhL to Out'
  'mg C m^-2 d^-1'
  'StatVar, scalar, series'
  'ocean_time'
  'iDbio3(iflx_Ver_PhL_Out)'
  'r3dvar'
  1.0d0

'Ver_Det_DetBen'
  'sinking-to-bottom flux from Det to DetBen'
  'mg C m^-2 d^-1'
  'StatVar, scalar, series'
  'ocean_time'
  'iDbio3(iflx_Ver_Det_DetB)'
  'r3dvar'
  1.0d0

'Ver_Det_Out'
  'sinking-to-bottom flux from Det to Out'
  'mg C m^-2 d^-1'
  'StatVar, scalar, series'
  'ocean_time'
  'iDbio3(iflx_Ver_Det_Out)'
  'r3dvar'
  1.0d0

'Ver_DetF_DetBen'
  'sinking-to-bottom flux from DetF to DetBen'
  'mg C m^-2 d^-1'
  'StatVar, scalar, series'
  'ocean_time'
  'iDbio3(iflx_Ver_DetF_DetB)'
  'r3dvar'
  1.0d0

'Ver_DetF_Out'
  'sinking-to-bottom flux from DetF to Out'
  'mg C m^-2 d^-1'
  'StatVar, scalar, series'
  'ocean_time'
  'iDbio3(iflx_Ver_DetF_Out)'
  'r3dvar'
  1.0d0

'Ver_NCaO_DetBen'
  'sinking-to-bottom flux from NCaO to DetBen'
  'mg C m^-2 d^-1'
  'StatVar, scalar, series'
  'ocean_time'
  'iDbio3(iflx_Ver_NCaO_DetB)'
  'r3dvar'
  1.0d0

'Ver_NCaS_DetF'
  'sinking-to-bottom flux from NCaS to DetF'
  'mg C m^-2 d^-1'
  'StatVar, scalar, series'
  'ocean_time'
  'iDbio3(iflx_Ver_NCaS_DetF)'
  'r3dvar'
  1.0d0

'Ver_NCaS_DetBen'
  'sinking-to-bottom flux from NCaS to DetBen'
  'mg C m^-2 d^-1'
  'StatVar, scalar, series'
  'ocean_time'
  'iDbio3(iflx_Ver_NCaS_DetB)'
  'r3dvar'
  1.0d0

'Frz_PhL_IPhL'
  'freezing(+)/melting(-) flux from PhL to IPhL'
  'mg C m^-2 d^-1'
  'StatVar, scalar, series'
  'ocean_time'
  'iDbio3(iflx_Frz_PhL_IPhL)'
  'r3dvar'
  1.0d0

'Frz_NO3_INO3'
  'freezing(+)/melting(-) flux from NO3 to INO3'
  'mg C m^-2 d^-1'
  'StatVar, scalar, series'
  'ocean_time'
  'iDbio3(iflx_Frz_NO3_INO3)'
  'r3dvar'
  1.0d0

'Frz_NH4_INH4'
  'freezing(+)/melting(-) flux from NH4 to INH4'
  'mg C m^-2 d^-1'
  'StatVar, scalar, series'
  'ocean_time'
  'iDbio3(iflx_Frz_NH4_INH4)'
  'r3dvar'
  1.0d0

'prod_PhS'
  'PhS net production rate'
  'mg C m^-2 d^-1'
  'StatVar, scalar, series'
  'ocean_time'
  'iDbio3(iprod_PhS)'
  'r3dvar'
  1.0d0

'prod_PhL'
  'PhL net primary production'
  'mg C m^-3 d^-1'
  'StatVar, scalar, series'
  'ocean_time'
  'iDbio3(iprod_PhL)'
  'r3dvar'
  1.0d0

'prod_MZL'
  'MZL net production rate'
  'mg C m^-2 d^-1'
  'StatVar, scalar, series'
  'ocean_time'
  'iDbio3(iprod_MZL)'
  'r3dvar'
  1.0d0

'prod_Cop'
  'Cop net production rate'
  'mg C m^-2 d^-1'
  'StatVar, scalar, series'
  'ocean_time'
  'iDbio3(iprod_Cop)'
  'r3dvar'
  1.0d0

'prod_NCaS'
  'NCaS net production rate'
  'mg C m^-2 d^-1'
  'StatVar, scalar, series'
  'ocean_time'
  'iDbio3(iprod_NCaS)'
  'r3dvar'
  1.0d0

'prod_EupS'
  'EupS net production rate'
  'mg C m^-2 d^-1'
  'StatVar, scalar, series'
  'ocean_time'
  'iDbio3(iprod_EupS)'
  'r3dvar'
  1.0d0

'prod_NCaO'
  'NCaO net production rate'
  'mg C m^-2 d^-1'
  'StatVar, scalar, series'
  'ocean_time'
  'iDbio3(iprod_NCaO)'
  'r3dvar'
  1.0d0

'prod_EupO'
  'EupO net production rate'
  'mg C m^-2 d^-1'
  'StatVar, scalar, series'
  'ocean_time'
  'iDbio3(iprod_EupO)'
  'r3dvar'
  1.0d0

'prod_Jel'
  'Jel net production rate'
  'mg C m^-2 d^-1'
  'StatVar, scalar, series'
  'ocean_time'
  'iDbio3(iprod_Jel)'
  'r3dvar'
  1.0d0

'prod_Ben'
  'Ben net production rate'
  'mg C m^-2 d^-1'
  'StatVar, scalar, series'
  'ocean_time'
  'iDbio3(iprod_Ben)'
  'r3dvar'
  1.0d0

'prod_IcePhL'
  'IcePhL net production rate'
  'mg C m^-2 d^-1'
  'StatVar, scalar, series'
  'ocean_time'
  'iDbio3(iprod_IcePhL)'
  'r3dvar'
  1.0d0

'onExit_NO3'
  'NO3 biomass tracker'
  'mmol N m^-2'
  'StatVar, scalar, series'
  'ocean_time'
  'iDbio3(ibiomem_NO3)'
  'r3dvar'
  1.0d0

'onExit_NH4'
  'NH4 biomass tracker'
  'mmol N m^-2'
  'StatVar, scalar, series'
  'ocean_time'
  'iDbio3(ibiomem_NH4)'
  'r3dvar'
  1.0d0

'onExit_PhS'
  'PhS biomass tracker'
  'mgC m^-2'
  'StatVar, scalar, series'
  'ocean_time'
  'iDbio3(ibiomem_PhS)'
  'r3dvar'
  1.0d0

'onExit_PhL'
  'PhL biomass tracker'
  'mgC m^-2'
  'StatVar, scalar, series'
  'ocean_time'
  'iDbio3(ibiomem_PhL)'
  'r3dvar'
  1.0d0

'onExit_MZL'
  'MZL biomass tracker'
  'mgC m^-2'
  'StatVar, scalar, series'
  'ocean_time'
  'iDbio3(ibiomem_MZL)'
  'r3dvar'
  1.0d0

'onExit_Cop'
  'Cop biomass tracker'
  'mgC m^-2'
  'StatVar, scalar, series'
  'ocean_time'
  'iDbio3(ibiomem_Cop)'
  'r3dvar'
  1.0d0

'onExit_NCaS'
  'NCaS biomass tracker'
  'mgC m^-2'
  'StatVar, scalar, series'
  'ocean_time'
  'iDbio3(ibiomem_NCaS)'
  'r3dvar'
  1.0d0

'onExit_EupS'
  'EupS biomass tracker'
  'mgC m^-2'
  'StatVar, scalar, series'
  'ocean_time'
  'iDbio3(ibiomem_EupS)'
  'r3dvar'
  1.0d0

'onExit_NCaO'
  'NCaO biomass tracker'
  'mgC m^-2'
  'StatVar, scalar, series'
  'ocean_time'
  'iDbio3(ibiomem_NCaO)'
  'r3dvar'
  1.0d0

'onExit_EupO'
  'EupO biomass tracker'
  'mgC m^-2'
  'StatVar, scalar, series'
  'ocean_time'
  'iDbio3(ibiomem_EupO)'
  'r3dvar'
  1.0d0

'onExit_Det'
  'Det biomass tracker'
  'mgC m^-2'
  'StatVar, scalar, series'
  'ocean_time'
  'iDbio3(ibiomem_Det)'
  'r3dvar'
  1.0d0

'onExit_DetF'
  'DetF biomass tracker'
  'mgC m^-2'
  'StatVar, scalar, series'
  'ocean_time'
  'iDbio3(ibiomem_DetF)'
  'r3dvar'
  1.0d0

'onExit_Jel'
  'Jel biomass tracker'
  'mgC m^-2'
  'StatVar, scalar, series'
  'ocean_time'
  'iDbio3(ibiomem_Jel)'
  'r3dvar'
  1.0d0

'onExit_Fe'
  'Fe biomass tracker'
  'umolFe m^-2'
  'StatVar, scalar, series'
  'ocean_time'
  'iDbio3(ibiomem_Fe)'
  'r3dvar'
  1.0d0

'advdiff_NO3'
  'NO3 rate of change due to advection and diffusion'
  'mmol N m^-2 d^-1'
  'StatVar, scalar, series'
  'ocean_time'
  'iDbio3(iflx_Adv_NO3)'
  'r3dvar'
  1.0d0

'advdiff_NH4'
  'NH4 rate of change due to advection and diffusion'
  'mmol N m^-2 d^-1'
  'StatVar, scalar, series'
  'ocean_time'
  'iDbio3(iflx_Adv_NH4)'
  'r3dvar'
  1.0d0

'advdiff_PhS'
  'PhS rate of change due to advection and diffusion'
  'mgC m^-2 d^-1'
  'StatVar, scalar, series'
  'ocean_time'
  'iDbio3(iflx_Adv_PhS)'
  'r3dvar'
  1.0d0

'advdiff_PhL'
  'PhL rate of change due to advection and diffusion'
  'mgC m^-2 d^-1'
  'StatVar, scalar, series'
  'ocean_time'
  'iDbio3(iflx_Adv_PhL)'
  'r3dvar'
  1.0d0

'advdiff_MZL'
  'MZL rate of change due to advection and diffusion'
  'mgC m^-2 d^-1'
  'StatVar, scalar, series'
  'ocean_time'
  'iDbio3(iflx_Adv_MZL)'
  'r3dvar'
  1.0d0

'advdiff_Cop'
  'Cop rate of change due to advection and diffusion'
  'mgC m^-2 d^-1'
  'StatVar, scalar, series'
  'ocean_time'
  'iDbio3(iflx_Adv_Cop)'
  'r3dvar'
  1.0d0

'advdiff_NCaS'
  'NCaS rate of change due to advection and diffusion'
  'mgC m^-2 d^-1'
  'StatVar, scalar, series'
  'ocean_time'
  'iDbio3(iflx_Adv_NCaS)'
  'r3dvar'
  1.0d0

'advdiff_EupS'
  'EupS rate of change due to advection and diffusion'
  'mgC m^-2 d^-1'
  'StatVar, scalar, series'
  'ocean_time'
  'iDbio3(iflx_Adv_EupS)'
  'r3dvar'
  1.0d0

'advdiff_NCaO'
  'NCaO rate of change due to advection and diffusion'
  'mgC m^-2 d^-1'
  'StatVar, scalar, series'
  'ocean_time'
  'iDbio3(iflx_Adv_NCaO)'
  'r3dvar'
  1.0d0

'advdiff_EupO'
  'EupO rate of change due to advection and diffusion'
  'mgC m^-2 d^-1'
  'StatVar, scalar, series'
  'ocean_time'
  'iDbio3(iflx_Adv_EupO)'
  'r3dvar'
  1.0d0

'advdiff_Det'
  'Det rate of change due to advection and diffusion'
  'mgC m^-2 d^-1'
  'StatVar, scalar, series'
  'ocean_time'
  'iDbio3(iflx_Adv_Det)'
  'r3dvar'
  1.0d0

'advdiff_DetF'
  'DetF rate of change due to advection and diffusion'
  'mgC m^-2 d^-1'
  'StatVar, scalar, series'
  'ocean_time'
  'iDbio3(iflx_Adv_DetF)'
  'r3dvar'
  1.0d0

'advdiff_Jel'
  'Jel rate of change due to advection and diffusion'
  'mgC m^-2 d^-1'
  'StatVar, scalar, series'
  'ocean_time'
  'iDbio3(iflx_Adv_Jel)'
  'r3dvar'
  1.0d0

'advdiff_Fe'
  'Fe rate of change due to advection and diffusion'
  'umolFe m^-2 d^-1'
  'StatVar, scalar, series'
  'ocean_time'
  'iDbio3(iflx_Adv_Fe)'
  'r3dvar'
  1.0d0

'PAR'
  'Photosynthetically active radiation'
  'W m^-2'
  'StatVar, scalar, series'
  'ocean_time'
  'iDbio3(ipar)'
  'r3dvar'
  1.0d0

'P_Production'
  'Cumulative gross primary production'
  'mg C m^-2 d-1'
  'StatVar, scalar, series'
  'ocean_time'
  'iDbio3(itotprod)'
  'r3dvar'
  1.0d0

'Respiration'
  'Cumulative respiration'
  'mg C m^-2 d^-1'
  'StatVar, scalar, series'
  'ocean_time'
  'iDbio3(itotresp)'
  'r3dvar'
  1.0d0

'Remineralization'
  'Cumulative remineralization'
  'mg C m^-2 d^-1'
  'StatVar, scalar, series'
  'ocean_time'
  'iDbio3(itotrem)'
  'r3dvar'
  1.0d0

'ice_Alk_flux'
  'Sea-ice alklinity exchange'
  'meq m^-2 d^-1'
  'StatVar, scalar, series'
  'ocean_time'
  'iDbio3(iflx_Frz_Alk)'
  'r3dvar'
  1.0d0

! 2D diagnostics

'CO2_airsea'
  'CO2 air-sea flux'
  'millimole carbon meter-2 d-1'
  'StatVar scalar series'
  'ocean_time'
  'iDbio2(ico2flx)'
  'r2dvar'
  1.0d0

'pCO2'
  'partial pressure of CO2'
  'uatm'
  'StatVar scalar series'
  'ocean_time'
  'iDbio2(ipco2)'
  'r2dvar'
  1.0d0

'O2_airsea'
  'O2 air-sea flux'
  'millimole_oxygen meter-2 day-1'
  'StatVar scalar series'
  'ocean_time'
  'iDbio2(io2flx)'
  'r2dvar'
  1.0d0
