!                                                                             !
!
!==============================================================================
!  Copyright (c) 2002 ROMS/TOMS Group, version 2.0                          ===
!========================================================= Hernan G. Arango ===
!                                                                             !
! Input parameters can be entered in ANY order, provided that the parameter   !
! KYWORD (usually, upper case) is typed correctly followed by "="  or "=="   !
! symbols. Any comment lines are allowed and must begin with an exclamation   !
! mark (!) in column one.  Comments may  appear to the right of a parameter   !
! specification to improve documentation.  All comments will ignored during   !
! reading.  Blank lines are also allowed and ignored. Continuation lines in   !
! a parameter specification are allowed and must be preceded by a backslash   !
! (\).  In some instances, more than one value is required for a parameter.   !
! If fewer values are provided, the  last value  is assigned for the entire   !
! parameter array.  The multiplication symbol (*),  without blank spaces in   !
! between, is allowed for a parameter specification.  For example, in a two   !
! grids nested application:                                                   !
!                                                                             !
!    AKT_BAK == 2*1.0d-6  2*5.0d-6              ! m2/s                        !
!                                                                             !
! indicates that the first two entries of array AKT_BAK,  in fortran column-  !
! major order, will have the same value of "1.0d-6" for grid 1,  whereas the  !
! next two entries will have the same value of "5.0d-6" for grid 2.           !
!                                                                             !
! In multiple levels of nesting and/or multiple connected domains  step-ups,  !
! "Ngrids" entries are expected for some of these parameters.  In such case,  !
! the order of the entries for a parameter is extremely important.  It  must  !
! follow the same order (1:Ngrids) as in the state variable declaration. The  !
! USER may follow the above guidelines for specifying his/her values.  These  !
! parameters are marked by "==" plural symbol after the KEYWORD.              !
!                                                                             !
!==============================================================================
!
! NOTICE: Input parameter units are specified within brakets and default
! ******  values are specified within braces.
!
! Switch to control the computation of biology within nested and/or multiple
! connected grids.
Lbiology == T
! Maximum number of iterations to achieve convergence of the nonlinear
! solution.
BioIter == 1

! Light
 PARfrac  ==  0.42d0    ! Fraction of irradiance that is photosynthetically available (PAR) [unitless]
 k_ext    ==  0.046     ! Clear-water attenuation coefficient [m^-1]
 k_chlA   ==  0.1159    ! Chlorophyll attenuation coefficient, factor [m^-1]
 k_chlB   ==  0.2829    ! Chlorophyll attenuation coefficient, exponent [unitless]
 k_chlC   ==  0.0       ! Other material (CDOM,sediment,etc.) attenuation coefficient [m^-1]
 k_sed1   ==  2.833     ! Depth-based attenuation coefficient, factor [m^-1]
 k_sed2   == -1.079     ! Depth-based attenuation coefficient, exponent [unitless]

! Biological conversions
 xi       ==   0.0126   ! Nitrogen:Carbon ratio [mmol N / mg C]
 ccr      ==  65.0      ! Carbon:Chlorophyll ratio, small phyto [mg C / mg Chl-a]
 ccrPhL   ==  25.0      ! Carbon:Chlorophyll ratio, large phyto [mg C / mg Chl-a]
 FeC      ==   1.667d-4 ! Fe:Carbon ratio [umol Fe / mg C]   (2 umol Fe : mol C)

! Phytoplankton growth parameters
DiS      ==   0.5d0     ! Doubling rate parameter [d^-1]
DiL      ==   1.0d0
DpS      ==   0.0275    ! Doubling rate exponent  [degC^-1]
DpL      ==   0.0275
alphaPhS ==   5.6       ! photosynthetic efficiency [mg C m^2 (mg Chl-a)^-1 (E^-1)]
alphaPhL ==   2.2
k1PhS    ==   1.0       ! Half-saturation constant for NO3 limitation
k1PhL    ==   2.0
k2PhS    ==   0.5       ! Half-saturation constant for NH4 limitation
k2PhL    ==   2.0
FeCritPS ==   2.0       ! Threshold below which PhS is limited [umol Fe m^-3]
FeCritPL ==   2.0
kfePhS   ==   0.3       ! Half-saturation constant for Fe [umol m^-3]
kfePhL   ==   1.0

! Feeding preferences
fpPhSMZL  == 1.0         ! PhS->MZL  Feeding preference
fpPhLMZL  == 0.2         ! PhL->MZL  Feeding preference
fpPhSCop  == 0.8         ! PhS->Cop  Feeding preference
fpPhLCop  == 0.7         ! PhL->Cop  Feeding preference
fpMZLCop  == 0.5         ! MZL->Cop  Feeding preference
fpPhSNCa  == 0.1         ! PhS->NCa  Feeding preference
fpPhLNCa  == 1.0         ! PhL->NCa  Feeding preference
fpMZLNCa  == 1.0         ! MZL->NCa  Feeding preference
fpPhSEup  == 1.0         ! PhS->Eup  Feeding preference
fpPhLEup  == 1.0         ! PhL->Eup  Feeding preference
fpMZLEup  == 1.0         ! MZL->Eup  Feeding preference
fpCopEup  == 0.2         ! Cop->Eup  Feeding preference
fpDetEup  == 0.4         ! Det->Eup  Feeding preference
fpDetEupO == 0.0         ! Det->EupO Feeding preference
fpCopJel  == 1.0         ! Cop->Jel  Feeding preference
fpNCaJel  == 1.0         ! NCa->Jel  Feeding preference
fpEupJel  == 1.0         ! Eup->Jel  Feeding preference

! Zooplankton growth and feeding
eMZL     ==  0.4         ! maximum specific ingestion rate [mg C/mg C/d]
eCop     ==  0.4
eNCa     ==  0.3
eEup     ==  0.3
eJel     ==  0.069
Q10MZL   ==  2.0         ! Q10 for growth rate [unitless]
Q10Cop   ==  1.7
Q10NCa   ==  1.6
Q10Eup   ==  1.50
Q10Jele  ==  2.4
Q10MZLT  ==  5.0         ! Temperature coefficient for Q10 [deg. C]
Q10CopT  ==  5.0
Q10NCaT  ==  5.0
Q10EupT  ==  5.0
Q10JelTe == 10.0
fMZL     == 20.0         ! Half-saturation constant for grazing [mg C/m3]
fCop     == 30.0
fNCa     == 30.0
fEup     == 40.0
fJel     ==  0.01
gammaMZL ==  0.7         ! Growth efficiency
gammaCop ==  0.7
gammaNCa ==  0.7
gammaEup ==  0.7
gammaJel ==  1.0

! Linear mortality
mPhS  ==   0.01          ! daily linear mortality rate (senescence) [1/d]
mPhL  ==   0.01          ! daily linear mortality rate (senescence) [1/d]
mMZL  ==   0.0           ! daily linear mortality rate [1/d]

! Predation closure (quadratic mortality)
mpredMZL == 0.01         ! Daily mortality for Large Microzoo. [1/d/mgC]
mpredCop == 0.05         ! Daily mortality for Copepods        [1/d/mgC]
mpredNCa == 0.05         ! Daily mortality for Neocalanus      [1/d/mgC]
mpredEup == 0.05         ! Daily mortality for Euphausiids     [1/d/mgC]
mpredJel == 0.006        ! Daily mortality for Large Microzoo. [1/d/mgC]

! Sinking
wPhS     ==   0.05       ! Sinking rate for Small Phytoplankton [m/d]
wPhL     ==   1.0        ! Sinking rate for Large Phytoplankton [m/d]
wDet     ==   1.0        ! Sinking rate for Detritus [m/d]
wDetF    ==  10.0        ! Sinking rate for Detritus [m/d]

! Respiration
respPhS  ==  0.02        ! Specific respiration rate [d^-1]
respPhL  ==  0.02
respMZL  ==  0.08
respCop  ==  0.04
respNCa  ==  0.03
respEup  ==  0.02
respJel  ==  0.02
Q10Jelr  ==  2.8         ! Q10 for respiration rate, jellyfish [degC]
Q10JelTr == 10.0         ! reference temperature for Q10 respiration, jellyfish [1/degC]
KtBm_PhS ==  0.03        ! temperature coefficient for respiration [1/deg C]
KtBm_PhL ==  0.03
KtBm_MZL ==  0.069
ktbmC    ==  0.05
ktbmN    ==  0.05
ktbmE    ==  0.069
TmaxPhS  == 10.0         ! reference temperature for respiration [degC]
TmaxPhL  == 10.0
TmaxMZL  ==  8.0
TrefC    == 15.0
TrefN    ==  5.0
TrefE    ==  5.0

! Iron climatology
Feinlo   ==   2.0        ! inshore/surface [micromol Fe m-3 or nM]
Feinhi   ==   4.0        ! inshore/deep    [micromol Fe m-3 or nM]
Feinh    ==  20.0        ! inshore isobath of transition [m]
Feofflo  ==   0.01       ! offshore/surface [micromol Fe m-3 or nM]
Feoffhi  ==   2.0        ! offshore/deep    [micromol Fe m-3 or nM]
Feoffh   == 100.0        ! offshore isobath of transition [m]

! Diapause
! KAK: All 0s for CM parameters is a shortcut to make NCaS dates lag NCaO dates by 30 days
!      All any other value for either group leads to no diapause
wNCrise     ==  12.0     ! upward velocity [m/day], tuned not data
wNCsink     ==  11.0     ! downward velocity [m/day], tuned not data
RiseStart   ==  0.0      ! Date NCaO begin to move upward [Day of Year]
RiseEnd     ==  60.0     ! Date NCaO stop moving upward [Day of Year]
SinkStart   == 155.0     ! Date NCaO begin to move downward [Day of Year]
SinkEnd     == 366.0     ! Date NCaO stop moving downward [Day of Year]
RiseStartCM ==   0.0     ! Date NCaS begin to move upward [Day of Year]
RiseEndCM   ==   0.0     ! Date NCaS stop moving upward [Day of Year]
SinkStartCM ==   0.0     ! Date NCaS begin to move downward [Day of Year]
SinkEndCM   ==   0.0     ! Date NCaS stop moving downward [Day of Year]

! Remineralization and nitrification

Pv0     ==  0.1          ! PON decompositon at 0 deg C [1/d]
PvT     ==  0.069        ! Temperature coefficient for remineralization [1/deg C]
Nitr0   ==  0.0107       ! Nitrification rate at 0C [1/d]
ktntr   ==  0.002        ! Temperature coefficient for nitrification [1/deg C]
KNH4Nit ==  0.057        ! Half saturation constant for nitrification [mmolN/m^3]
ToptNtr == 20.0          ! Optimal temperature for nitrification [degC]

! Benthos

q10r     ==    1.5            ! Q10 for growth/feeding and mortality rate [unitless]
Rup      ==    0.05           ! maximum specific ingestion rate [1/d]
KupD     == 2000.0            ! Half-saturation constant for feeding on benthic prey [mg C/m^2]
KupP     ==   10.0            ! Half-saturation constant for feeding on pelagic prey [mg C/m^2]
LupD     ==  292.0            ! Lower threshold for feeding on benthic prey [mg C/m^2]
LupP     ==    1.0            ! Lower threshold for feeding on pelagic prey [mg C/m^2]
Qres     ==    0.25           ! Active metabolic rate [1/d]
Rres     ==    0.0027         ! Basal metabolism rate [1/d]
rmort    ==    0.0021         ! linear mortality rate [1/d]
eex      ==    0.3     0.3    ! fraction of living food excreted (1 - growth efficiency)
eexD     ==    0.50    0.7    ! fraction of detrital food excreted
prefD    ==    1.0     0.1    ! DetBen->Ben feeding preference
prefPL   ==    1.0     0.1    ! PhL->Ben feeding preference
prefPS   ==    0.1     0.1    ! PhS->Ben feeding preference
T0benr   ==    5.0            ! Reference temperature for growth/feeding rate [degC]
BenPred  ==    0.000001       ! Quadratic mortality rate due to undefined predation [1/mgC/d]

! Ice biology

alphaIb  == 0.80        ! IcePhL Chl-a specific attenuation coefficient [W^-1 m^-2]
betaI    == 0.018       ! IcePhL photosynthetic efficiency [W^-1 m^-2]
inhib    == 1.46        ! IcePhL NH4 inhibition on NO3 uptake [m^3/mmol N]
ksnut1   == 1.0         ! IcePhL half-saturation constant for NO3 [mmolN/m^3]
ksnut2   == 4.0         ! IcePhL half-saturation constant for NH4 [mmolN/m^3]
mu0      == 2.4         ! IcePhL maximum growth rate at 0 deg C [1/d]
R0i      == 0.05        ! IcePhL respiration rate [1/d]
rg0      == 0.01        ! IcePhL mortality rate at 0 deg C [1/d]
rg       == 0.03        ! IcePhL temperature coefficient for mortality [1/deg C]
annit    == 0.0149      ! IcePhL nitrification factor [1/d]
aidz     == 0.02        ! Ice thickness [m]



! Lateral, constant, harmonic/biharmonic horizontal diffusion of biological
! tracer: [1:NBT,Ngrids].

        TNU2 == 15*25.0d0      5.0d0                     ! [m2/s]
        TNU4 == 15*0.0d0       2.0d0                     ! [m4/s]

! Vertical mixing coefficients for biological tracers: [1:NBT,Ngrids].

     AKT_BAK == 15*1.0d-6                                ! [m2/s]

! Nudging/relaxation time scales, inverse scales will be computed
! internally: [1:NBT,Ngrids].
! 1-2 = NO3, NH4 15 = Fe

        TNUDG == 2*360.0 12*36000.0d0  14.0d0            ! [days]

! Set horizontal and vertical advection schemes for biological tracers.
! A different advection scheme is allowed for each tracer. For example,
! a positive-definite (monotonic) algorithm can be activated for
! salinity and biological tracers, while a different one is set for
! temperature. [1:NAT+NPT,Ngrids] values are expected.
!
!   Keyword    Advection Algorithm
!
!   A4         4th-order Akima (horizontal/vertical)
!   C2         2nd-order centered differences (horizontal/vertical)
!   C4         4th-order centered differences (horizontal/vertical)
!   HSIMT      3th-order HSIMT-TVD (horizontal/vertical)
!   MPDATA     recursive flux corrected MPDATA (horizontal/vertical)
!   SPLINES    parabolic splines (only vertical)
!   SU3        split third-order upstream (horizontal/vertical)
!   U3         3rd-order upstream-biased (only horizontal)
!
! The user has the option of specifying the full Keyword or the first
! two letters, regardless if using uppercase or lowercase. If nested
! grids, specify values for each grid.
!
   Hadvection == HSIMT

   Vadvection == HSIMT

! Adjoint-based algorithms can have different horizontal and schemes
! for active and inert tracers.

ad_Hadvection == U3                             ! idbio(:), compact

ad_Vadvection == C4                             ! idbio(:), compact

! Logical switches (TRUE/FALSE) to activate writing of biological tracers
! into HISTORY output file: [1:NBT,Ngrids].
!
! BESTNPZ State Variables:
!  1. NO3
!  2. NH4
!  3. PhS
!  4. PhL
!  5. MZL
!  6. Cop
!  7. NCaS
!  8. EupS
!  9. NCaO
! 10. EupO
! 11. Det
! 12. DetF
! 13. Jel
! 14. Fe
! 15. TIC
! 16. Alk
! 17. Oxyg

Hout(idTvar) == 17*T                  ! biological tracer, pelagic
Hout(idBeTvar) == 2*T                 ! bioloigical tracers, benthic
Hout(idIcePhL) == T
Hout(idIceNO3) == T
Hout(idIceNH4) == T
Hout(idTsur) == 17*F                  ! surface tracer flux

Aout(idTvar) == 17*T
Aout(idBeTvar) == 2*T
Aout(idIcePhL) == T
Aout(idIceNO3) == T
Aout(idIceNH4) == T

! Logical switches (TRUE/FALSE) to activate writing of biological diagnostics
! into DIAGNOSTICS output file

! Primary production-related

Dout(iilims)  == F
Dout(iiliml)  == F
Dout(inolims) == F
Dout(inoliml) == F
Dout(inhlims) == F
Dout(inhliml) == F
Dout(ifelims) == F
Dout(ifeliml) == F

! Fluxes between state variables
Dout(iflx_Gpp_NO3_PhS)   == F
Dout(iflx_Gpp_NO3_PhL)   == F
Dout(iflx_Gpp_NH4_PhS)   == F
Dout(iflx_Gpp_NH4_PhL)   == F
Dout(iflx_Gra_PhS_MZL)   == F
Dout(iflx_Gra_PhL_MZL)   == F
Dout(iflx_Ege_MZL_Det)   == F
Dout(iflx_Gra_PhS_Cop)   == F
Dout(iflx_Gra_PhL_Cop)   == F
Dout(iflx_Gra_MZL_Cop)   == F
Dout(iflx_Gra_IPhL_Cop)  == F
Dout(iflx_Ege_Cop_DetF)  == F
Dout(iflx_Gra_PhS_NCaS)  == F
Dout(iflx_Gra_PhL_NCaS)  == F
Dout(iflx_Gra_MZL_NCaS)  == F
Dout(iflx_Gra_IPhL_NCaS) == F
Dout(iflx_Ege_NCaS_DetF) == F
Dout(iflx_Gra_PhS_NCaO)  == F
Dout(iflx_Gra_PhL_NCaO)  == F
Dout(iflx_Gra_MZL_NCaO)  == F
Dout(iflx_Gra_IPhL_NCaO) == F
Dout(iflx_Ege_NCaO_DetF) == F
Dout(iflx_Gra_PhS_EupS)  == F
Dout(iflx_Gra_PhL_EupS)  == F
Dout(iflx_Gra_MZL_EupS)  == F
Dout(iflx_Gra_Cop_EupS)  == F
Dout(iflx_Gra_IPhL_EupS) == F
Dout(iflx_Gra_Det_EupS)  == F
Dout(iflx_Gra_DetF_EupS) == F
Dout(iflx_Ege_EupS_DetF) == F
Dout(iflx_Gra_PhS_EupO)  == F
Dout(iflx_Gra_PhL_EupO)  == F
Dout(iflx_Gra_MZL_EupO)  == F
Dout(iflx_Gra_Cop_EupO)  == F
Dout(iflx_Gra_IPhL_EupO) == F
Dout(iflx_Gra_Det_EupO)  == F
Dout(iflx_Gra_DetF_EupO) == F
Dout(iflx_Ege_EupO_DetF) == F
Dout(iflx_Gra_Cop_Jel)   == F
Dout(iflx_Gra_EupS_Jel)  == F
Dout(iflx_Gra_EupO_Jel)  == F
Dout(iflx_Gra_NCaS_Jel)  == F
Dout(iflx_Gra_NCaO_Jel)  == F
Dout(iflx_Ege_Jel_DetF)  == F
Dout(iflx_Mor_PhS_Det)   == F
Dout(iflx_Mor_PhL_Det)   == F
Dout(iflx_Mor_MZL_Det)   == F
Dout(iflx_Mor_Cop_DetF)  == F
Dout(iflx_Mor_NCaS_DetF) == F
Dout(iflx_Mor_EupS_DetF) == F
Dout(iflx_Mor_NCaO_DetF) == F
Dout(iflx_Mor_EupO_DetF) == F
Dout(iflx_Mor_Jel_DetF)  == F
Dout(iflx_Res_PhS_NH4)   == F
Dout(iflx_Res_PhL_NH4)   == F
Dout(iflx_Res_MZL_NH4)   == F
Dout(iflx_Res_Cop_NH4)   == F
Dout(iflx_Res_NCaS_NH4)  == F
Dout(iflx_Res_NCaO_NH4)  == F
Dout(iflx_Res_EupS_NH4)  == F
Dout(iflx_Res_EupO_NH4)  == F
Dout(iflx_Res_Jel_NH4)   == F
Dout(iflx_Rem_Det_NH4)   == F
Dout(iflx_Rem_DetF_NH4)  == F
Dout(iflx_Nit_NH4_NO3)   == F
Dout(iflx_Gra_Det_Ben)   == F
Dout(iflx_Gra_DetF_Ben)  == F
Dout(iflx_Gra_PhS_Ben)   == F
Dout(iflx_Gra_PhL_Ben)   == F
Dout(iflx_Gra_DetB_Ben)  == F
Dout(iflx_Exc_Ben_NH4)   == F
Dout(iflx_Exc_Ben_DetB)  == F
Dout(iflx_Res_Ben_NH4)   == F
Dout(iflx_Mor_Ben_DetB)  == F
Dout(iflx_Rem_DetB_NH4)  == F
Dout(iflx_Gpp_INO3_IPhL) == F
Dout(iflx_Gpp_INH4_IPhL) == F
Dout(iflx_Res_IPhL_INH4) == F
Dout(iflx_Mor_IPhL_INH4) == F
Dout(iflx_Nit_INH4_INO3) == F
Dout(iflx_Twi_IPhL_PhL)  == F
Dout(iflx_Twi_INO3_NO3)  == F
Dout(iflx_Twi_INH4_NH4)  == F
Dout(iflx_Ver_PhS_DetB)  == F
Dout(iflx_Ver_PhS_Out)   == F
Dout(iflx_Ver_PhL_DetB)  == F
Dout(iflx_Ver_PhL_Out)   == F
Dout(iflx_Ver_Det_DetB)  == F
Dout(iflx_Ver_Det_Out)   == F
Dout(iflx_Ver_DetF_DetB) == F
Dout(iflx_Ver_DetF_Out)  == F
Dout(iflx_Ver_NCaO_DetB) == F
Dout(iflx_Ver_NCaS_DetF) == F
Dout(iflx_Ver_NCaS_DetB) == F
Dout(iflx_Frz_PhL_IPhL)  == F
Dout(iflx_Frz_NO3_INO3)  == F
Dout(iflx_Frz_NH4_INH4)  == F
Dout(iflx_Frz_TIC)       == F
Dout(iflx_Frz_Alk)       == F
Dout(iflx_Adv_NO3)       == F
Dout(iflx_Adv_NH4)       == F
Dout(iflx_Adv_PhS)       == F
Dout(iflx_Adv_PhL)       == F
Dout(iflx_Adv_MZL)       == F
Dout(iflx_Adv_Cop)       == F
Dout(iflx_Adv_NCaS)      == F
Dout(iflx_Adv_EupS)      == F
Dout(iflx_Adv_NCaO)      == F
Dout(iflx_Adv_EupO)      == F
Dout(iflx_Adv_Det)       == F
Dout(iflx_Adv_DetF)      == F
Dout(iflx_Adv_Jel)       == F
Dout(iflx_Adv_Fe)        == F
Dout(iflx_Adv_TIC)       == F
Dout(iflx_Adv_Alk)       == F
Dout(iflx_Adv_Oxyg)      == F

! Net production
Dout(iprod_PhS)    == F
Dout(iprod_PhL)    == F
Dout(iprod_MZL)    == F
Dout(iprod_Cop)    == F
Dout(iprod_NCaS)   == F
Dout(iprod_EupS)   == F
Dout(iprod_NCaO)   == F
Dout(iprod_EupO)   == F
Dout(iprod_Jel)    == F
Dout(iprod_Ben)    == F
Dout(iprod_IcePhL) == F

! Other fluxes

Dout(itotprod) == F
Dout(itotresp) == F
Dout(itotrem)  == F

! 2D diagnostics

Dout(io2flx)   == F
Dout(ico2flx)  == F
Dout(ipco2)    == F

! End-of-timestep (memory) biomass
! Note: these are used to calculate advective/diffusive fluxes within the code, and are
! unlikely to be needed outside that context.  Recommend to keep F.

Dout(ibiomem_NO3)  == F
Dout(ibiomem_NH4)  == F
Dout(ibiomem_PhS)  == F
Dout(ibiomem_PhL)  == F
Dout(ibiomem_MZL)  == F
Dout(ibiomem_Cop)  == F
Dout(ibiomem_NCaS) == F
Dout(ibiomem_EupS) == F
Dout(ibiomem_NCaO) == F
Dout(ibiomem_EupO) == F
Dout(ibiomem_Det)  == F
Dout(ibiomem_DetF) == F
Dout(ibiomem_Jel)  == F
Dout(ibiomem_Fe)   == F
Dout(ibiomem_TIC)  == F
Dout(ibiomem_Alk)  == F
Dout(ibiomem_Oxyg) == F

! Lateral boundary conditions

LBC(isTvar) ==   RadNud  RadNud  Clo  Clo \ !  1. NO3
                 RadNud  RadNud  Clo  Clo \ !  2. NH4
                 RadNud  RadNud  Clo  Clo \ !  3. PhS
                 RadNud  RadNud  Clo  Clo \ !  4. PhL
                 RadNud  RadNud  Clo  Clo \ !  5. MZL
                 RadNud  RadNud  Clo  Clo \ !  6. Cop
                 RadNud  RadNud  Clo  Clo \ !  7. NCaS
                 RadNud  RadNud  Clo  Clo \ !  8. EupS
                 RadNud  RadNud  Clo  Clo \ !  9. NCaO
                 RadNud  RadNud  Clo  Clo \ ! 10. EupO
                 RadNud  RadNud  Clo  Clo \ ! 11. Det
                 RadNud  RadNud  Clo  Clo \ ! 12. DetF
                 RadNud  RadNud  Clo  Clo \ ! 13. Jel
                 RadNud  RadNud  Clo  Clo \ ! 14. Fe
                 RadNud  RadNud  Clo  Clo \ ! 15. TIC
                 RadNud  RadNud  Clo  Clo \ ! 16. Alk
                 RadNud  RadNud  Clo  Clo   ! 17. Oxyg

! Logical switches (TRUE/FALSE) to specify which variables to process for
! tracers climatology: [NBT,Ngrids] values are expected. See glossary below
! for details.

 LtracerCLM == 17*F
 LnudgeTCLM == 17*F
 LtracerSrc == 17*F

