!  Station Extraction Parameters.
!
!==============================================================================
!  Copyright (c) 2002-2017 The ROMS/TOMS Group                              ===
!========================================================= Hernan G. Arango ===
!                                                                             !
! Input parameters can be entered in ANY order, provided that the parameter   !
! KEYWORD (usually, upper case) is typed correctly followed by "="  or "=="   !
! symbols. Any comment lines are allowed and must begin with an exclamation   !
! mark (!) in column one.  Comments may  appear to the right of a parameter   !
! specification to improve documentation.  All comments will ignored during   !
! reading.  Blank lines are also allowed and ignored. Continuation lines in   !
! a parameter specification are allowed and must be preceded by a backslash   !
! (\).  In some instances, more than one value is required for a parameter.   !
! If fewer values are provided, the  last value  is assigned for the entire   !
! parameter array.  The multiplication symbol (*),  without blank spaces in   !
! between, is allowed for a parameter specification.  For example, in a two   !
! grids nested application:                                                   !
!                                                                             !
!    AKT_BAK == 2*1.0d-6  2*5.0d-6              ! m2/s                        !
!                                                                             !
! indicates that the first two entries of array AKT_BAK,  in fortran column-  !
! major order, will have the same value of "1.0d-6" for grid 1,  whereas the  !
! next two entries will have the same value of "5.0d-6" for grid 2.           !
!                                                                             !
! In multiple levels of nesting and/or multiple connected domains  step-ups,  !
! "Ngrids" entries are expected for some of these parameters.  In such case,  !
! the order of the entries for a parameter is extremely important.  It  must  !
! follow the same order (1:Ngrids) as in the state variable declaration. The  !
! USER may follow the above guidelines for specifying his/her values.  These  !
! parameters are marked by "==" plural symbol after the KEYWORD.              !
!                                                                             !
!==============================================================================
!
! Switch to control the writing of stations data within nested and/or multiple
! connected grids, [1:Ngrids].

   Lstations == T

! Logical switches (TRUE/FALSE) to activate writing of fields in STATION
! output file, [Sout(:,ng), ng=1, Ngrids].

Sout(idFsur) == T                          ! free-surface
Sout(idUbar) == T                          ! 2D U-velocity
Sout(idVbar) == T                          ! 2D V-velocity
Sout(idUvel) == T                          ! 3D U-velocity
Sout(idVvel) == T                          ! 3D V-velocity
Sout(idWvel) == T                          ! 3D W-velocity
Sout(idOvel) == T                          ! 3D omega vertical velocity

Sout(idTvar) == T T T T T T T T T T T T T T T T     ! all (NT) tracers

Sout(idUsms) == T                          ! surface U-stress
Sout(idVsms) == T                          ! surface V-stress
Sout(idUbms) == T                          ! bottom U-stress
Sout(idVbms) == T                          ! bottom V-stress
Sout(idUbws) == F                          ! bottom U-wave stress
Sout(idVbws) == F                          ! bottom V-wave stress

Sout(idUbed) == F                          ! bed wave orbital U-velocity
Sout(idVbed) == F                          ! bed wave orbital V-velocity
Sout(idUbot) == F                          ! bottom U-momentum above bed
Sout(idVbot) == F                          ! bottom V-momentum above bed

Sout(idTsur) == T T                        ! surface net heat and salt flux
Sout(idLhea) == T                          ! latent heat flux
Sout(idShea) == T                          ! sensible heat flux
Sout(idLrad) == T                          ! longwave radiation flux
Sout(idSrad) == T                          ! shortwave radiation flux
Sout(idevap) == F                          ! evaporation rate
Sout(idrain) == F                          ! precipitation rate

Sout(idDano) == T                          ! density anomaly
Sout(idVvis) == T                          ! vertical viscosity
Sout(idTdif) == T                          ! vertical T-diffusion
Sout(idSdif) == T                          ! vertical Salinity diffusion
Sout(idHsbl) == T                          ! depth of surface boundary layer
Sout(idHbbl) == T                          ! depth of bottom boundary layer
Sout(idMtke) == F                          ! turbulent kinetic energy
Sout(idMtls) == F                          ! turbulent length scale

! Logical switches (TRUE/FALSE) to activate writing of ice prognostic
! variables into HISTORY output file.
Sout(idUice) == T
Sout(idVice) == T
Sout(idAice) == T
Sout(idHice) == T
Sout(idTice) == T
Sout(idHsno) == T
Sout(idTimid) == T
Sout(idT2ice) == T
Sout(idTauiw) == F
Sout(idChuiw) == F
Sout(idAgeice) == T
Sout(idSig11) == T
Sout(idSig12) == T
Sout(idSig22) == T
Sout(idS0mk) == T
Sout(idT0mk) == T
Sout(idWfr) == T
Sout(idWai) == T
Sout(idWao) == T
Sout(idWio) == T
Sout(idWro) == T
Sout(idWdiv) == T

Sout(idAlbe) == T
Sout(idAlbI) == T
Sout(idLWdn) == T
Sout(idSWdn) == T
Sout(idLatI) == T
Sout(idSenI) == T
Sout(idLWupI) == T
Sout(idSWupI) == T
Sout(idSWinI) == T
Sout(idSWthruI) == T
Sout(idSaltI) == T
Sout(idSaltL) == T
Sout(idQao) == T
Sout(idQai) == T
Sout(idQio) == T
Sout(idQi2) == T
Sout(idSnoI) == T

! Logical switches (TRUE/FALSE) to activate writing of exposed sediment
! layer properties into STATIONS output file.  Currently, MBOTP properties
! are expected for the bottom boundary layer and/or sediment models:
!
!   Sout(idBott(isd50)),  isd50 = 1        ! mean grain diameter
!   Sout(idBott(idens)),  idens = 2        ! mean grain density
!   Sout(idBott(iwsed)),  iwsed = 3        ! mean settling velocity
!   Sout(idBott(itauc)),  itauc = 4        ! critical erosion stress
!   Sout(idBott(irlen)),  irlen = 5        ! ripple length
!   Sout(idBott(irhgt)),  irhgt = 6        ! ripple height
!   Sout(idBott(ibwav)),  ibwav = 7        ! wave excursion amplitude
!   Sout(idBott(izdef)),  izdef = 8        ! default bottom roughness
!   Sout(idBott(izapp)),  izapp = 9        ! apparent bottom roughness
!   Sout(idBott(izNik)),  izNik = 10       ! Nikuradse bottom roughness
!   Sout(idBott(izbio)),  izbio = 11       ! biological bottom roughness
!   Sout(idBott(izbfm)),  izbfm = 12       ! bed form bottom roughness
!   Sout(idBott(izbld)),  izbld = 13       ! bed load bottom roughness
!   Sout(idBott(izwbl)),  izwbl = 14       ! wave bottom roughness
!   Sout(idBott(iactv)),  iactv = 15       ! active layer thickness
!   Sout(idBott(ishgt)),  ishgt = 16       ! saltation height
!
!                                 1 1 1 1 1 1 1
!               1 2 3 4 5 6 7 8 9 0 1 2 3 4 5 6

Sout(idBott) == F F F F F F F F F F F F F F F F

! Number of stations to process in each nested grid.  These values are
! essential because the station arrays are dynamically allocated using
! these values, [1:Ngrids].

    NSTATION ==  35

! Station locations for all grids in any desired order.  The horizontal
! location for a particular station may be specified in terms of fractional
! (I,J) grid pairs (FLAG=0) or (longitude,latitude) grid pairs (FLAG=1).
! Here, FLAG is a special switch and may be used for multiple purposes.
! The GRID column indicates nested grid number to process. This value must
! be one in non-nested applications.  The COMMENT section is ignored during
! reading and may be used to help documentation.

POS = GRID FLAG X-POS        Y-POS        COMMENT  ! name         region                     gridcell   
         1    1   195.482000    55.072000 ! 'BS-1'                'AK peninsula'             10092
         1    1   195.943000    56.877000 ! 'BS-2'                'South middle shelf'       11201
         1    1   193.663000    56.049000 ! 'BS-3'                'South outer shelf'        12462
         1    1   191.130000    57.853000 ! 'BS-4'                'Central middle shelf'     16112
         1    1   188.289000    59.898000 ! 'BS-5'                'St. Matthew'              19947
         1    1   191.146000    53.406000 ! 'BS-6'                'Off-shelf southeast'      12797
         1    1   190.905000    53.598000 ! 'BS-7'                'Off-shelf southeast'      13162
         1    1   185.332000    62.194000 ! 'BS-8'                'North middle shelf'       23786
         1    1   198.050942    56.268793 ! '1east'               'AK peninsula'              8835
         1    1   197.075666    58.082151 ! '2'                   'South inner shelf'        11214
         1    1   201.560638    57.889318 ! '2 low'               'South inner shelf'         7402
         1    1   193.438736    57.912346 ! '3high'               'South middle shelf'       14116
         1    1   199.847699    57.364473 ! '3low'                'South middle shelf'        8303
         1    1   189.605389    56.811488 ! '5'                   'Pribilofs'                16646
         1    1   192.498012    59.274617 ! '7'                   'Central inner shelf'      15946
         1    1   183.091018    60.346739 ! '8high'               'North outer shelf'        24493
         1    1   186.321121    58.817561 ! '8med'                'North outer shelf'        20844
         1    1   187.786134    57.099870 ! '8low'                'North outer shelf'        18465
         1    1   191.340159    61.212814 ! '11'                  'North inner shelf'        18327
         1    1   187.719107    63.766476 ! '12'                  'St. Lawrence'             22894
         1    1   191.833220    64.425345 ! '13'                  'South Bering Strait'      20359
         1    1   195.143283    63.956613 ! '14'                  'Norton Sound'             17631
         1    1   181.242499    59.030382 ! '15high'              'Off-shelf north'          25388
         1    1   184.563456    58.055814 ! '15med'               'Off-shelf north'          21926
         1    1   187.977788    55.954464 ! '15low'               'Off-shelf north'          17545
         1    1   189.535606    55.377820 ! '16 high'             'Off-shelf southeast'      15723
         1    1   192.351143    54.443646 ! '16lowinner'          'Off-shelf southeast'      12445
         1    1   189.364722    53.519340 ! '16lowouter'          'Off-shelf southeast'      14614
         1    1   181.732286    64.069596 ! 'Gulf of Anadyr'      'Gulf of Anadyr'           27620
         1    1   164.339841    59.524587 ! 'Karaginskiy Gulf'    'Karaginskiy Gulf'         40667
         1    1   176.673737    57.534277 ! 'Aleutian Basin'      'Aleutian Basin'           28826
         1    1   176.187612    53.526246 ! 'Bowers Basin'        'Bowers Basin'             27695
         1    1   167.077501    57.035096 ! 'Komandor Basin'      'Komandor Basin'           37731
         1    1   179.911736    53.260088 ! 'Bowers Ridge'        'Bowers Ridge'             23876
         1    1   170.626328    58.287708 ! 'Shirshov Ridge'      'Shirshov Ridge'           34652

!
!  GLOSSARY:
!  =========
!
!  This input file provides the positions of stations data to be extracted
!  and written into STATIONS output file.  This file is use to monitor model
!  fields at frequent time intervals.  It is also used to sample model at
!  observation locations in order to build the penalty function used in
!  variational data assimilation.
!
!------------------------------------------------------------------------------
! Control Switch.
!------------------------------------------------------------------------------
!
! Lstations      Switch to control the writing of station data within nested
!                  and/or multiple connected grids. Ngrid values are expected.
!                  By default this switch is set to TRUE in "mod_scalars" for
!                  all grids when the CPP option STATIONS is activated.  The
!                  USER can control which grid to process by turning on/off
!                  this switch.
!
!------------------------------------------------------------------------------
! Logical switches (TRUE/FALSE) to activate writing of fields in STATIONS
! output file.  Except for tracer type variables, Ngrids values are expected
! for all switches.
!------------------------------------------------------------------------------
!
!  Sout(idUvel)  Write out 3D U-velocity component.
!  Sout(idVvel)  Write out 3D V-velocity component.
!  Sout(idWvel)  Write out 3D W-velocity component.
!  Sout(idOvel)  Write out 3D omega vertical velocity.
!  Sout(idUbar)  Write out 2D U-velocity component.
!  Sout(idVbar)  Write out 2D V-velocity component.
!  Sout(idFsur)  Write out free-surface.
!
!  Sout(idTvar)  Write out tracer type variables,  (NT,Ngrids) values are
!                  Expected.
!
!  Sout(idUsms)  Write out surface U-momentum stress.
!  Sout(idVsms)  Write out surface V-momentum stress.
!  Sout(idUbms)  Write out bottom  U-momentum stress.
!  Sout(idVbms)  Write out bottom  V-momentum stress.
!  Sout(idUbws)  Write out wind-induced, bottom U-wave stress.
!  Sout(idVbws)  Write out wind-induced, bottom V-wave stress.
!
!  Sout(idUbed)  Write out wind-induced, bed wave orbital U-velocity.
!  Sout(idVbed)  Write out wind-induced, bed wave orbital V-velocity.
!  Sout(idUbot)  Write out bottom U-momentum above bed.
!  Sout(idVbot)  Write out bottom V-momentum above bed.
!
!  Sout(idTsur)  Write out surface net heat and salt flux.
!  Sout(idLhea)  Write out latent heat flux.
!  Sout(idShea)  Write out sensible heat flux.
!  Sout(idLrad)  Write out long-wave radiation flux.
!  Sout(idSrad)  Write out short-wave radiation flux.
!  Sout(idevap)  Write out evaporation rate.
!  Sout(idrain)  Write out precipitation rate.
!
!  Sout(idDano)  Write out density anomaly.
!  Sout(idVvis)  Write out vertical viscosity coefficient.
!  Sout(idTdif)  Write out vertical diffusion coefficient of temperature.
!  Sout(idSdif)  Write out vertical diffusion coefficient of salinity.
!  Sout(idHsbl)  Write out depth of oceanic surface boundary layer.
!  Sout(idHbbl)  Write out depth of oceanic bottom boundary layer.
!  Sout(idMtke)  Write out turbulent kinetic energy.
!  Sout(idMtls)  Write out turbulent kinetic energy times length scale.
!
!  Sout(idBott)  Write out exposed sediment layer properties, 1:MBOTP.
!
!------------------------------------------------------------------------------
! Station positions KEYWORDS.
!------------------------------------------------------------------------------
!
!  NSTATION      Number of stations to process in each nested grid. Ngrids
!                  values are expected.  These values are essential because
!                  the station arrays are dynamically allocated using these
!                  values.
!
!  POS           Station locations for all grids in any desired order.  The
!                  horizontal location for a particular station can be
!                  specified in terms of fractional (I,J) grid pairs (FLAG=0)
!                  or (longitude,latitude) grid pairs (FLAG=1). Here, FLAG is
!                  a special switch and may be used for multiple purposes.
!                  The GRID column indicates nested grid number to process.
!                  This value must be one in non-nested applications.  The
!                  COMMENT section is ignored during reading and may be used
!                  to help documentation.  This locations are used to
!                  interpolate model data before writting to output STATIONS
!                  file.  The stations locations are read using the following
!                  statement:
!
!                  is(1:Ngrids)=0
!                  DO WHILE (.true.)
!                    read (unit,*,ERR=10) igrid, flag, Xpos, Ypos
!                    ng=MAX(1,ABS(ng))
!                    is(ng)=ic(ng)+1
!                    SCALARS(ng)%Sflag(is(ng))=flag
!                    SCALARS(ng)%SposX(is(ng))=Xpos
!                    SCALARS(ng)%SposY(is(ng))=Ypos
!                  END DO
!
!                Since there is no decoding during the reading the stations
!                locations, the POS keyword must be the last one to process.
!                That is, it should be at the end of the input specification.
!
!
